<?xml version="1.0" ?>
<routes xmlns:xsi="http://www.w3.org/2001/XMLSchema-instance" xsi:noNamespaceSchemaLocation="http://sumo.dlr.de/xsd/routes_file.xsd">
  <vType id="veh_passenger" vClass="passenger"/>
  <trip id="veh0" type="veh_passenger" depart="0" departLane="best" from="360610647" to="-165933115#0"/>
  <trip id="veh1" type="veh_passenger" depart="0.025" departLane="best" from="164606041" to="-795055161#2"/>
  <trip id="veh2" type="veh_passenger" depart="0.051" departLane="best" from="360610647" to="458811959#0"/>
  <trip id="veh3" type="veh_passenger" depart="0.076" departLane="best" from="360610647" to="1224943813"/>
  <trip id="veh4" type="veh_passenger" depart="0.102" departLane="best" from="164606041" to="-165556872#0"/>
  <trip id="veh5" type="veh_passenger" depart="0.127" departLane="best" from="360610647" to="-795694458#0"/>
  <trip id="veh6" type="veh_passenger" depart="0.152" departLane="best" from="164606041" to="702275602#1"/>
  <trip id="veh7" type="veh_passenger" depart="0.178" departLane="best" from="164606041" to="165937411#1"/>
  <trip id="veh8" type="veh_passenger" depart="0.203" departLane="best" from="164606041" to="-391463715#3"/>
  <trip id="veh9" type="veh_passenger" depart="0.228" departLane="best" from="164606041" to="-165556872#3"/>
  <trip id="veh10" type="veh_passenger" depart="0.254" departLane="best" from="164606041" to="703794532#0"/>
  <trip id="veh11" type="veh_passenger" depart="0.279" departLane="best" from="164606041" to="-165864152#0"/>
  <trip id="veh12" type="veh_passenger" depart="0.305" departLane="best" from="360610647" to="-165937415#0"/>
  <trip id="veh13" type="veh_passenger" depart="0.33" departLane="best" from="360610647" to="166134924#1"/>
  <trip id="veh14" type="veh_passenger" depart="0.355" departLane="best" from="164606041" to="660001920#2"/>
  <trip id="veh15" type="veh_passenger" depart="0.381" departLane="best" from="360610647" to="165932883"/>
  <trip id="veh16" type="veh_passenger" depart="0.406" departLane="best" from="164606041" to="476159049#1"/>
  <trip id="veh17" type="veh_passenger" depart="0.432" departLane="best" from="164606041" to="166189861#1"/>
  <trip id="veh18" type="veh_passenger" depart="0.457" departLane="best" from="164606041" to="166117610#0"/>
  <trip id="veh19" type="veh_passenger" depart="0.482" departLane="best" from="164606041" to="166137335#4"/>
  <trip id="veh20" type="veh_passenger" depart="0.508" departLane="best" from="360610647" to="-780404208#1"/>
  <trip id="veh21" type="veh_passenger" depart="0.533" departLane="best" from="360610647" to="459209819"/>
  <trip id="veh22" type="veh_passenger" depart="0.558" departLane="best" from="164606041" to="469945929"/>
  <trip id="veh23" type="veh_passenger" depart="0.584" departLane="best" from="360610647" to="165554611#1"/>
  <trip id="veh24" type="veh_passenger" depart="0.609" departLane="best" from="164606041" to="795694455"/>
  <trip id="veh25" type="veh_passenger" depart="0.635" departLane="best" from="360610647" to="795034171#0"/>
  <trip id="veh26" type="veh_passenger" depart="0.66" departLane="best" from="360610647" to="511890781"/>
  <trip id="veh27" type="veh_passenger" depart="0.671" departLane="best" from="164606041" to="-165873280#3"/>
  <trip id="veh28" type="veh_passenger" depart="0.683" departLane="best" from="164606041" to="419996939"/>
  <trip id="veh29" type="veh_passenger" depart="0.694" departLane="best" from="164606041" to="795694458#6"/>
  <trip id="veh30" type="veh_passenger" depart="0.706" departLane="best" from="164606041" to="165879626#0"/>
  <trip id="veh31" type="veh_passenger" depart="0.717" departLane="best" from="360610647" to="-165859122#0"/>
  <trip id="veh32" type="veh_passenger" depart="0.728" departLane="best" from="164606041" to="166134551#1"/>
  <trip id="veh33" type="veh_passenger" depart="0.74" departLane="best" from="164606041" to="165932051#1"/>
  <trip id="veh34" type="veh_passenger" depart="0.751" departLane="best" from="164606041" to="37401554#0-AddedOnRampEdge"/>
  <trip id="veh35" type="veh_passenger" depart="0.762" departLane="best" from="164606041" to="625435491#0"/>
  <trip id="veh36" type="veh_passenger" depart="0.774" departLane="best" from="360610647" to="166138495#2"/>
  <trip id="veh37" type="veh_passenger" depart="0.785" departLane="best" from="164606041" to="166192666#2"/>
  <trip id="veh38" type="veh_passenger" depart="0.797" departLane="best" from="164606041" to="-23565389#5"/>
  <trip id="veh39" type="veh_passenger" depart="0.808" departLane="best" from="164606041" to="-165864147#0"/>
  <trip id="veh40" type="veh_passenger" depart="0.819" departLane="best" from="164606041" to="-794794081#4"/>
  <trip id="veh41" type="veh_passenger" depart="0.831" departLane="best" from="360610647" to="165556872#10"/>
  <trip id="veh42" type="veh_passenger" depart="0.842" departLane="best" from="360610647" to="795168527#0"/>
  <trip id="veh43" type="veh_passenger" depart="0.853" departLane="best" from="360610647" to="382760156"/>
  <trip id="veh44" type="veh_passenger" depart="0.865" departLane="best" from="360610647" to="-474161217"/>
  <trip id="veh45" type="veh_passenger" depart="0.876" departLane="best" from="164606041" to="-165864128#0"/>
  <trip id="veh46" type="veh_passenger" depart="0.888" departLane="best" from="360610647" to="37397059#3"/>
  <trip id="veh47" type="veh_passenger" depart="0.899" departLane="best" from="360610647" to="-166132722#0"/>
  <trip id="veh48" type="veh_passenger" depart="0.91" departLane="best" from="360610647" to="165503751#1"/>
  <trip id="veh49" type="veh_passenger" depart="0.922" departLane="best" from="360610647" to="-37396788#3"/>
  <trip id="veh50" type="veh_passenger" depart="0.933" departLane="best" from="360610647" to="165864146#3"/>
  <trip id="veh51" type="veh_passenger" depart="0.944" departLane="best" from="164606041" to="-391463715#0"/>
  <trip id="veh52" type="veh_passenger" depart="0.956" departLane="best" from="164606041" to="-165932036#1"/>
  <trip id="veh53" type="veh_passenger" depart="0.967" departLane="best" from="360610647" to="-165879632#0"/>
  <trip id="veh54" type="veh_passenger" depart="0.979" departLane="best" from="164606041" to="629505825"/>
  <trip id="veh55" type="veh_passenger" depart="0.99" departLane="best" from="164606041" to="816394212#4"/>
  <trip id="veh56" type="veh_passenger" depart="1.001" departLane="best" from="360610647" to="794794069#1"/>
  <trip id="veh57" type="veh_passenger" depart="1.013" departLane="best" from="164606041" to="-165932882#1"/>
  <trip id="veh58" type="veh_passenger" depart="1.024" departLane="best" from="164606041" to="-165932043#4"/>
  <trip id="veh59" type="veh_passenger" depart="1.036" departLane="best" from="164606041" to="816394205#1"/>
  <trip id="veh60" type="veh_passenger" depart="1.047" departLane="best" from="164606041" to="165503748#13"/>
  <trip id="veh61" type="veh_passenger" depart="1.058" departLane="best" from="164606041" to="717856644#0"/>
  <trip id="veh62" type="veh_passenger" depart="1.07" departLane="best" from="360610647" to="-166132723#0"/>
  <trip id="veh63" type="veh_passenger" depart="1.081" departLane="best" from="164606041" to="-166140728#0"/>
  <trip id="veh64" type="veh_passenger" depart="1.092" departLane="best" from="360610647" to="166189855#1"/>
  <trip id="veh65" type="veh_passenger" depart="1.104" departLane="best" from="164606041" to="165864135#1"/>
  <trip id="veh66" type="veh_passenger" depart="1.115" departLane="best" from="164606041" to="166141453#0"/>
  <trip id="veh67" type="veh_passenger" depart="1.127" departLane="best" from="360610647" to="-816394207"/>
  <trip id="veh68" type="veh_passenger" depart="1.138" departLane="best" from="360610647" to="332813717"/>
  <trip id="veh69" type="veh_passenger" depart="1.149" departLane="best" from="164606041" to="-816394214#5"/>
  <trip id="veh70" type="veh_passenger" depart="1.161" departLane="best" from="360610647" to="658568388#1"/>
  <trip id="veh71" type="veh_passenger" depart="1.172" departLane="best" from="360610647" to="502228155"/>
  <trip id="veh72" type="veh_passenger" depart="1.183" departLane="best" from="360610647" to="-167849648"/>
  <trip id="veh73" type="veh_passenger" depart="1.195" departLane="best" from="164606041" to="506755493"/>
  <trip id="veh74" type="veh_passenger" depart="1.206" departLane="best" from="360610647" to="518192062#6"/>
  <trip id="veh75" type="veh_passenger" depart="1.218" departLane="best" from="164606041" to="-166132718#2"/>
  <trip id="veh76" type="veh_passenger" depart="1.229" departLane="best" from="164606041" to="476159045#0"/>
  <trip id="veh77" type="veh_passenger" depart="1.24" departLane="best" from="164606041" to="166134552#5"/>
  <trip id="veh78" type="veh_passenger" depart="1.252" departLane="best" from="164606041" to="-945304243#0"/>
  <trip id="veh79" type="veh_passenger" depart="1.263" departLane="best" from="360610647" to="-37398835#7"/>
  <trip id="veh80" type="veh_passenger" depart="1.274" departLane="best" from="164606041" to="37400682#2"/>
  <trip id="veh81" type="veh_passenger" depart="1.286" departLane="best" from="164606041" to="-165503737#1"/>
  <trip id="veh82" type="veh_passenger" depart="1.297" departLane="best" from="360610647" to="-656241644"/>
  <trip id="veh83" type="veh_passenger" depart="1.309" departLane="best" from="164606041" to="1205393236#17"/>
  <trip id="veh84" type="veh_passenger" depart="1.32" departLane="best" from="360610647" to="164604154#2-AddedOnRampEdge"/>
  <trip id="veh85" type="veh_passenger" depart="1.359" departLane="best" from="164606041" to="795081468"/>
  <trip id="veh86" type="veh_passenger" depart="1.398" departLane="best" from="164606041" to="166192263"/>
  <trip id="veh87" type="veh_passenger" depart="1.436" departLane="best" from="360610647" to="-660540096"/>
  <trip id="veh88" type="veh_passenger" depart="1.475" departLane="best" from="360610647" to="-165932040#0"/>
  <trip id="veh89" type="veh_passenger" depart="1.514" departLane="best" from="360610647" to="798554872#0"/>
  <trip id="veh90" type="veh_passenger" depart="1.553" departLane="best" from="164606041" to="-166137563#0"/>
  <trip id="veh91" type="veh_passenger" depart="1.592" departLane="best" from="164606041" to="-166192668#2"/>
  <trip id="veh92" type="veh_passenger" depart="1.631" departLane="best" from="164606041" to="-166132713#1"/>
  <trip id="veh93" type="veh_passenger" depart="1.669" departLane="best" from="164606041" to="-658568390#3"/>
  <trip id="veh94" type="veh_passenger" depart="1.708" departLane="best" from="164606041" to="-795694456#2"/>
  <trip id="veh95" type="veh_passenger" depart="1.747" departLane="best" from="360610647" to="-165937402#2"/>
  <trip id="veh96" type="veh_passenger" depart="1.786" departLane="best" from="360610647" to="-660540096"/>
  <trip id="veh97" type="veh_passenger" depart="1.825" departLane="best" from="360610647" to="-166134554#0"/>
  <trip id="veh98" type="veh_passenger" depart="1.864" departLane="best" from="164606041" to="166132716#2"/>
  <trip id="veh99" type="veh_passenger" depart="1.902" departLane="best" from="360610647" to="-166138508#0"/>
  <trip id="veh100" type="veh_passenger" depart="1.941" departLane="best" from="360610647" to="1229457598#1"/>
  <trip id="veh101" type="veh_passenger" depart="1.98" departLane="best" from="360610647" to="-166132714#4"/>
  <trip id="veh102" type="veh_passenger" depart="2.009" departLane="best" from="164606041" to="1126006055#0"/>
  <trip id="veh103" type="veh_passenger" depart="2.037" departLane="best" from="360610647" to="166132738#1"/>
  <trip id="veh104" type="veh_passenger" depart="2.066" departLane="best" from="164606041" to="-660541285"/>
  <trip id="veh105" type="veh_passenger" depart="2.095" departLane="best" from="360610647" to="165504121"/>
  <trip id="veh106" type="veh_passenger" depart="2.123" departLane="best" from="164606041" to="-165932050#0"/>
  <trip id="veh107" type="veh_passenger" depart="2.152" departLane="best" from="164606041" to="-660540093#0"/>
  <trip id="veh108" type="veh_passenger" depart="2.181" departLane="best" from="360610647" to="390404843#1-AddedOffRampEdge"/>
  <trip id="veh109" type="veh_passenger" depart="2.21" departLane="best" from="360610647" to="-502223046#3"/>
  <trip id="veh110" type="veh_passenger" depart="2.238" departLane="best" from="164606041" to="697413076#2"/>
  <trip id="veh111" type="veh_passenger" depart="2.267" departLane="best" from="164606041" to="511890772"/>
  <trip id="veh112" type="veh_passenger" depart="2.296" departLane="best" from="360610647" to="796696404#2"/>
  <trip id="veh113" type="veh_passenger" depart="2.324" departLane="best" from="164606041" to="166132725#0"/>
  <trip id="veh114" type="veh_passenger" depart="2.353" departLane="best" from="360610647" to="165933888#4"/>
  <trip id="veh115" type="veh_passenger" depart="2.382" departLane="best" from="360610647" to="-166132718#1"/>
  <trip id="veh116" type="veh_passenger" depart="2.41" departLane="best" from="164606041" to="165873269#1"/>
  <trip id="veh117" type="veh_passenger" depart="2.439" departLane="best" from="164606041" to="165937401#2"/>
  <trip id="veh118" type="veh_passenger" depart="2.468" departLane="best" from="360610647" to="-816394214#1"/>
  <trip id="veh119" type="veh_passenger" depart="2.497" departLane="best" from="164606041" to="-166137329#3"/>
  <trip id="veh120" type="veh_passenger" depart="2.525" departLane="best" from="360610647" to="795082810"/>
  <trip id="veh121" type="veh_passenger" depart="2.554" departLane="best" from="360610647" to="795694452#0"/>
  <trip id="veh122" type="veh_passenger" depart="2.583" departLane="best" from="360610647" to="165503743"/>
  <trip id="veh123" type="veh_passenger" depart="2.611" departLane="best" from="164606041" to="165932876#0"/>
  <trip id="veh124" type="veh_passenger" depart="2.64" departLane="best" from="360610647" to="414214583"/>
  <trip id="veh125" type="veh_passenger" depart="2.772" departLane="best" from="360610647" to="-658923726#1"/>
  <trip id="veh126" type="veh_passenger" depart="2.904" departLane="best" from="360610647" to="77488351#0"/>
  <trip id="veh127" type="veh_passenger" depart="3.036" departLane="best" from="164606041" to="37397059#0"/>
  <trip id="veh128" type="veh_passenger" depart="3.168" departLane="best" from="164606041" to="-795034181"/>
  <trip id="veh129" type="veh_passenger" depart="3.3" departLane="best" from="164606041" to="166132716#0"/>
  <trip id="veh130" type="veh_passenger" depart="3.351" departLane="best" from="164606041" to="-775142034#0"/>
  <trip id="veh131" type="veh_passenger" depart="3.402" departLane="best" from="164606041" to="166141464#3"/>
  <trip id="veh132" type="veh_passenger" depart="3.452" departLane="best" from="360610647" to="-165937401#2"/>
  <trip id="veh133" type="veh_passenger" depart="3.503" departLane="best" from="164606041" to="-472282027"/>
  <trip id="veh134" type="veh_passenger" depart="3.554" departLane="best" from="164606041" to="801498941#1"/>
  <trip id="veh135" type="veh_passenger" depart="3.605" departLane="best" from="164606041" to="166136290"/>
  <trip id="veh136" type="veh_passenger" depart="3.655" departLane="best" from="360610647" to="37401538#3"/>
  <trip id="veh137" type="veh_passenger" depart="3.706" departLane="best" from="360610647" to="701227896"/>
  <trip id="veh138" type="veh_passenger" depart="3.757" departLane="best" from="164606041" to="-798552520#2"/>
  <trip id="veh139" type="veh_passenger" depart="3.808" departLane="best" from="164606041" to="-659998272#1"/>
  <trip id="veh140" type="veh_passenger" depart="3.858" departLane="best" from="360610647" to="74859503#0"/>
  <trip id="veh141" type="veh_passenger" depart="3.909" departLane="best" from="360610647" to="502224300#0"/>
  <trip id="veh142" type="veh_passenger" depart="3.96" departLane="best" from="164606041" to="-166192267#1"/>
  <trip id="veh143" type="veh_passenger" depart="4.043" departLane="best" from="164606041" to="775142040"/>
  <trip id="veh144" type="veh_passenger" depart="4.125" departLane="best" from="360610647" to="-165876156#1"/>
  <trip id="veh145" type="veh_passenger" depart="4.207" departLane="best" from="164606041" to="794794074#2"/>
  <trip id="veh146" type="veh_passenger" depart="4.29" departLane="best" from="164606041" to="-795055144#0"/>
  <trip id="veh147" type="veh_passenger" depart="4.372" departLane="best" from="164606041" to="166138503#2"/>
  <trip id="veh148" type="veh_passenger" depart="4.455" departLane="best" from="360610647" to="755347766#2"/>
  <trip id="veh149" type="veh_passenger" depart="4.537" departLane="best" from="360610647" to="117367009#3"/>
  <trip id="veh150" type="veh_passenger" depart="4.62" departLane="best" from="360610647" to="-794794081#0"/>
  <trip id="veh151" type="veh_passenger" depart="4.675" departLane="best" from="164606041" to="-659994462#1"/>
  <trip id="veh152" type="veh_passenger" depart="4.73" departLane="best" from="360610647" to="-1222875048#0"/>
  <trip id="veh153" type="veh_passenger" depart="4.785" departLane="best" from="360610647" to="-166136292#1"/>
  <trip id="veh154" type="veh_passenger" depart="4.84" departLane="best" from="164606041" to="-165876148#0"/>
  <trip id="veh155" type="veh_passenger" depart="4.895" departLane="best" from="360610647" to="-166136279#1"/>
  <trip id="veh156" type="veh_passenger" depart="4.95" departLane="best" from="360610647" to="-794794081#6"/>
  <trip id="veh157" type="veh_passenger" depart="5.005" departLane="best" from="164606041" to="-795168528#1"/>
  <trip id="veh158" type="veh_passenger" depart="5.06" departLane="best" from="360610647" to="166134547#1"/>
  <trip id="veh159" type="veh_passenger" depart="5.115" departLane="best" from="360610647" to="77488337#1"/>
  <trip id="veh160" type="veh_passenger" depart="5.17" departLane="best" from="360610647" to="166132713#7"/>
  <trip id="veh161" type="veh_passenger" depart="5.225" departLane="best" from="164606041" to="780404209"/>
  <trip id="veh162" type="veh_passenger" depart="5.28" departLane="best" from="360610647" to="-166132719#0"/>
  <trip id="veh163" type="veh_passenger" depart="5.319" departLane="best" from="164606041" to="626525993"/>
  <trip id="veh164" type="veh_passenger" depart="5.358" departLane="best" from="360610647" to="-718634434#3"/>
  <trip id="veh165" type="veh_passenger" depart="5.396" departLane="best" from="360610647" to="165859121#1"/>
  <trip id="veh166" type="veh_passenger" depart="5.435" departLane="best" from="164606041" to="795055165#1"/>
  <trip id="veh167" type="veh_passenger" depart="5.474" departLane="best" from="164606041" to="166118864"/>
  <trip id="veh168" type="veh_passenger" depart="5.513" departLane="best" from="164606041" to="-165879630"/>
  <trip id="veh169" type="veh_passenger" depart="5.552" departLane="best" from="164606041" to="-166136284#2"/>
  <trip id="veh170" type="veh_passenger" depart="5.591" departLane="best" from="360610647" to="816394212#1"/>
  <trip id="veh171" type="veh_passenger" depart="5.629" departLane="best" from="360610647" to="-165932052#1"/>
  <trip id="veh172" type="veh_passenger" depart="5.668" departLane="best" from="164606041" to="-166141467"/>
  <trip id="veh173" type="veh_passenger" depart="5.707" departLane="best" from="164606041" to="798554872#2"/>
  <trip id="veh174" type="veh_passenger" depart="5.746" departLane="best" from="360610647" to="165933888#0"/>
  <trip id="veh175" type="veh_passenger" depart="5.785" departLane="best" from="164606041" to="203971519"/>
  <trip id="veh176" type="veh_passenger" depart="5.824" departLane="best" from="360610647" to="795081465#1"/>
  <trip id="veh177" type="veh_passenger" depart="5.862" departLane="best" from="360610647" to="-166136290"/>
  <trip id="veh178" type="veh_passenger" depart="5.901" departLane="best" from="360610647" to="-658923726#1"/>
  <trip id="veh179" type="veh_passenger" depart="5.94" departLane="best" from="360610647" to="-166132712#2"/>
  <trip id="veh180" type="veh_passenger" depart="5.981" departLane="best" from="360610647" to="-795055144#4"/>
  <trip id="veh181" type="veh_passenger" depart="6.022" departLane="best" from="164606041" to="166140724"/>
  <trip id="veh182" type="veh_passenger" depart="6.064" departLane="best" from="164606041" to="-165873272"/>
  <trip id="veh183" type="veh_passenger" depart="6.105" departLane="best" from="164606041" to="-795081470"/>
  <trip id="veh184" type="veh_passenger" depart="6.146" departLane="best" from="164606041" to="-472066538"/>
  <trip id="veh185" type="veh_passenger" depart="6.187" departLane="best" from="360610647" to="470176639"/>
  <trip id="veh186" type="veh_passenger" depart="6.229" departLane="best" from="164606041" to="560417379"/>
  <trip id="veh187" type="veh_passenger" depart="6.27" departLane="best" from="164606041" to="165879640#1"/>
  <trip id="veh188" type="veh_passenger" depart="6.311" departLane="best" from="164606041" to="166134931#0"/>
  <trip id="veh189" type="veh_passenger" depart="6.352" departLane="best" from="164606041" to="-167850784"/>
  <trip id="veh190" type="veh_passenger" depart="6.394" departLane="best" from="360610647" to="-37400599#5"/>
  <trip id="veh191" type="veh_passenger" depart="6.435" departLane="best" from="360610647" to="-816394211#1"/>
  <trip id="veh192" type="veh_passenger" depart="6.476" departLane="best" from="164606041" to="-167850782#3"/>
  <trip id="veh193" type="veh_passenger" depart="6.517" departLane="best" from="164606041" to="-776655373#1"/>
  <trip id="veh194" type="veh_passenger" depart="6.559" departLane="best" from="360610647" to="-37401445#0"/>
  <trip id="veh195" type="veh_passenger" depart="6.6" departLane="best" from="164606041" to="795034170#0"/>
  <trip id="veh196" type="veh_passenger" depart="6.62" departLane="best" from="164606041" to="-166136290"/>
  <trip id="veh197" type="veh_passenger" depart="6.64" departLane="best" from="360610647" to="658923725#1"/>
  <trip id="veh198" type="veh_passenger" depart="6.66" departLane="best" from="360610647" to="165504120#0"/>
  <trip id="veh199" type="veh_passenger" depart="6.68" departLane="best" from="360610647" to="165504123#1"/>
  <trip id="veh200" type="veh_passenger" depart="6.7" departLane="best" from="360610647" to="1228634918#0"/>
  <trip id="veh201" type="veh_passenger" depart="6.72" departLane="best" from="360610647" to="-659998272#2"/>
  <trip id="veh202" type="veh_passenger" depart="6.74" departLane="best" from="360610647" to="-795055147"/>
  <trip id="veh203" type="veh_passenger" depart="6.76" departLane="best" from="360610647" to="117367009#3"/>
  <trip id="veh204" type="veh_passenger" depart="6.78" departLane="best" from="360610647" to="165556872#7"/>
  <trip id="veh205" type="veh_passenger" depart="6.8" departLane="best" from="360610647" to="37398252#1"/>
  <trip id="veh206" type="veh_passenger" depart="6.82" departLane="best" from="164606041" to="165876151#2"/>
  <trip id="veh207" type="veh_passenger" depart="6.84" departLane="best" from="360610647" to="780404207#2"/>
  <trip id="veh208" type="veh_passenger" depart="6.86" departLane="best" from="360610647" to="-37398450#0"/>
  <trip id="veh209" type="veh_passenger" depart="6.88" departLane="best" from="360610647" to="165867621#3"/>
  <trip id="veh210" type="veh_passenger" depart="6.9" departLane="best" from="164606041" to="165873289#1"/>
  <trip id="veh211" type="veh_passenger" depart="6.92" departLane="best" from="164606041" to="-694636574"/>
  <trip id="veh212" type="veh_passenger" depart="6.94" departLane="best" from="164606041" to="-166141474#2"/>
  <trip id="veh213" type="veh_passenger" depart="6.96" departLane="best" from="360610647" to="-794672358#0"/>
  <trip id="veh214" type="veh_passenger" depart="6.98" departLane="best" from="164606041" to="795082806#2"/>
  <trip id="veh215" type="veh_passenger" depart="7.0" departLane="best" from="360610647" to="-795055170#3"/>
  <trip id="veh216" type="veh_passenger" depart="7.02" departLane="best" from="360610647" to="-331628832#0"/>
  <trip id="veh217" type="veh_passenger" depart="7.04" departLane="best" from="360610647" to="166137568#3"/>
  <trip id="veh218" type="veh_passenger" depart="7.06" departLane="best" from="164606041" to="776655372#1"/>
  <trip id="veh219" type="veh_passenger" depart="7.08" departLane="best" from="164606041" to="-795694458#6"/>
  <trip id="veh220" type="veh_passenger" depart="7.1" departLane="best" from="360610647" to="-795034177#0"/>
  <trip id="veh221" type="veh_passenger" depart="7.12" departLane="best" from="360610647" to="165864132#2"/>
  <trip id="veh222" type="veh_passenger" depart="7.14" departLane="best" from="164606041" to="-702119864"/>
  <trip id="veh223" type="veh_passenger" depart="7.16" departLane="best" from="360610647" to="702274911"/>
  <trip id="veh224" type="veh_passenger" depart="7.18" departLane="best" from="360610647" to="660542919"/>
  <trip id="veh225" type="veh_passenger" depart="7.2" departLane="best" from="360610647" to="-164600464#1"/>
  <trip id="veh226" type="veh_passenger" depart="7.22" departLane="best" from="360610647" to="165864132#2"/>
  <trip id="veh227" type="veh_passenger" depart="7.24" departLane="best" from="360610647" to="166134558#1"/>
  <trip id="veh228" type="veh_passenger" depart="7.26" departLane="best" from="360610647" to="-794794081#1"/>
  <trip id="veh229" type="veh_passenger" depart="7.271" departLane="best" from="360610647" to="-166134552#1"/>
  <trip id="veh230" type="veh_passenger" depart="7.281" departLane="best" from="164606041" to="502613497"/>
  <trip id="veh231" type="veh_passenger" depart="7.292" departLane="best" from="164606041" to="794820516#1"/>
  <trip id="veh232" type="veh_passenger" depart="7.303" departLane="best" from="164606041" to="-795168531#0"/>
  <trip id="veh233" type="veh_passenger" depart="7.313" departLane="best" from="164606041" to="626525991"/>
  <trip id="veh234" type="veh_passenger" depart="7.324" departLane="best" from="164606041" to="165876151#1"/>
  <trip id="veh235" type="veh_passenger" depart="7.335" departLane="best" from="360610647" to="-166140735#1"/>
  <trip id="veh236" type="veh_passenger" depart="7.345" departLane="best" from="360610647" to="-658570755#0"/>
  <trip id="veh237" type="veh_passenger" depart="7.356" departLane="best" from="360610647" to="-502226052#4"/>
  <trip id="veh238" type="veh_passenger" depart="7.366" departLane="best" from="164606041" to="-166118862#2"/>
  <trip id="veh239" type="veh_passenger" depart="7.377" departLane="best" from="164606041" to="165864130#6"/>
  <trip id="veh240" type="veh_passenger" depart="7.388" departLane="best" from="360610647" to="165554611#1"/>
  <trip id="veh241" type="veh_passenger" depart="7.398" departLane="best" from="360610647" to="862406250#0"/>
  <trip id="veh242" type="veh_passenger" depart="7.409" departLane="best" from="164606041" to="165937403#3"/>
  <trip id="veh243" type="veh_passenger" depart="7.42" departLane="best" from="164606041" to="658570755#0"/>
  <trip id="veh244" type="veh_passenger" depart="7.43" departLane="best" from="360610647" to="37401552#0"/>
  <trip id="veh245" type="veh_passenger" depart="7.441" departLane="best" from="360610647" to="37403032#1"/>
  <trip id="veh246" type="veh_passenger" depart="7.452" departLane="best" from="360610647" to="1126004345#0"/>
  <trip id="veh247" type="veh_passenger" depart="7.462" departLane="best" from="164606041" to="544948234"/>
  <trip id="veh248" type="veh_passenger" depart="7.473" departLane="best" from="360610647" to="502228157"/>
  <trip id="veh249" type="veh_passenger" depart="7.484" departLane="best" from="164606041" to="-561276934"/>
  <trip id="veh250" type="veh_passenger" depart="7.494" departLane="best" from="164606041" to="215390614#1"/>
  <trip id="veh251" type="veh_passenger" depart="7.505" departLane="best" from="360610647" to="795055168#1"/>
  <trip id="veh252" type="veh_passenger" depart="7.515" departLane="best" from="360610647" to="-165847322"/>
  <trip id="veh253" type="veh_passenger" depart="7.526" departLane="best" from="360610647" to="166138498"/>
  <trip id="veh254" type="veh_passenger" depart="7.537" departLane="best" from="360610647" to="-165937418"/>
  <trip id="veh255" type="veh_passenger" depart="7.547" departLane="best" from="164606041" to="166118878#3"/>
  <trip id="veh256" type="veh_passenger" depart="7.558" departLane="best" from="360610647" to="-166138495#3"/>
  <trip id="veh257" type="veh_passenger" depart="7.569" departLane="best" from="360610647" to="165937416"/>
  <trip id="veh258" type="veh_passenger" depart="7.579" departLane="best" from="360610647" to="166132722#1"/>
  <trip id="veh259" type="veh_passenger" depart="7.59" departLane="best" from="360610647" to="-166192279"/>
  <trip id="veh260" type="veh_passenger" depart="7.601" departLane="best" from="360610647" to="-656241652#1"/>
  <trip id="veh261" type="veh_passenger" depart="7.611" departLane="best" from="360610647" to="-166132715#0"/>
  <trip id="veh262" type="veh_passenger" depart="7.622" departLane="best" from="164606041" to="-796859899#1"/>
  <trip id="veh263" type="veh_passenger" depart="7.633" departLane="best" from="360610647" to="165503748#9"/>
  <trip id="veh264" type="veh_passenger" depart="7.643" departLane="best" from="360610647" to="-666021451#4"/>
  <trip id="veh265" type="veh_passenger" depart="7.654" departLane="best" from="360610647" to="-796859899#2"/>
  <trip id="veh266" type="veh_passenger" depart="7.665" departLane="best" from="360610647" to="165864128#3"/>
  <trip id="veh267" type="veh_passenger" depart="7.675" departLane="best" from="360610647" to="1009817533"/>
  <trip id="veh268" type="veh_passenger" depart="7.686" departLane="best" from="360610647" to="-165503748#2"/>
  <trip id="veh269" type="veh_passenger" depart="7.696" departLane="best" from="164606041" to="794794067#6"/>
  <trip id="veh270" type="veh_passenger" depart="7.707" departLane="best" from="164606041" to="-165876148#0"/>
  <trip id="veh271" type="veh_passenger" depart="7.718" departLane="best" from="164606041" to="-795055170#3"/>