<?xml version="1.0" ?>
<routes xmlns:xsi="http://www.w3.org/2001/XMLSchema-instance" xsi:noNamespaceSchemaLocation="http://sumo.dlr.de/xsd/routes_file.xsd">
  <vType id="bus_bus" vClass="bus"/>
  <trip id="bus0" type="bus_bus" depart="0" departLane="best" from="164606041" to="166140735#1"/>
  <trip id="bus1" type="bus_bus" depart="0.33" departLane="best" from="360610647" to="660531076#2"/>
  <trip id="bus2" type="bus_bus" depart="0.66" departLane="best" from="360610647" to="511894544#1"/>
  <trip id="bus3" type="bus_bus" depart="0.99" departLane="best" from="360610647" to="-1229702086#0"/>
  <trip id="bus4" type="bus_bus" depart="1.32" departLane="best" from="164606041" to="215390613#0"/>
  <trip id="bus5" type="bus_bus" depart="1.414" departLane="best" from="360610647" to="-168096684"/>
  <trip id="bus6" type="bus_bus" depart="1.509" departLane="best" from="360610647" to="-758761368"/>
  <trip id="bus7" type="bus_bus" depart="1.603" departLane="best" from="164606041" to="518192062#8"/>
  <trip id="bus8" type="bus_bus" depart="1.697" departLane="best" from="164606041" to="165867630#0"/>
  <trip id="bus9" type="bus_bus" depart="1.791" departLane="best" from="360610647" to="-165937419#0"/>
  <trip id="bus10" type="bus_bus" depart="1.886" departLane="best" from="360610647" to="165864135#2"/>
  <trip id="bus11" type="bus_bus" depart="1.98" departLane="best" from="164606041" to="-37398835#7"/>
  <trip id="bus12" type="bus_bus" depart="2.64" departLane="best" from="360610647" to="-165879630"/>
  <trip id="bus13" type="bus_bus" depart="2.97" departLane="best" from="164606041" to="37399340#0"/>
  <trip id="bus14" type="bus_bus" depart="3.3" departLane="best" from="360610647" to="689651364"/>
  <trip id="bus15" type="bus_bus" depart="3.96" departLane="best" from="360610647" to="518192062#6"/>
  <trip id="bus16" type="bus_bus" depart="4.07" departLane="best" from="360610647" to="166137329#2"/>
  <trip id="bus17" type="bus_bus" depart="4.18" departLane="best" from="164606041" to="165932045"/>
  <trip id="bus18" type="bus_bus" depart="4.29" departLane="best" from="164606041" to="166192666#2"/>
  <trip id="bus19" type="bus_bus" depart="4.4" departLane="best" from="360610647" to="166138511#0"/>
  <trip id="bus20" type="bus_bus" depart="4.51" departLane="best" from="164606041" to="1009817535#1"/>
  <trip id="bus21" type="bus_bus" depart="4.62" departLane="best" from="360610647" to="166134552#2"/>
  <trip id="bus22" type="bus_bus" depart="5.28" departLane="best" from="360610647" to="-164600465#2"/>
  <trip id="bus23" type="bus_bus" depart="5.34" departLane="best" from="360610647" to="-166137335#1"/>
  <trip id="bus24" type="bus_bus" depart="5.4" departLane="best" from="164606041" to="332679076#1"/>
  <trip id="bus25" type="bus_bus" depart="5.46" departLane="best" from="164606041" to="689664338"/>
  <trip id="bus26" type="bus_bus" depart="5.52" departLane="best" from="164606041" to="37398563"/>
  <trip id="bus27" type="bus_bus" depart="5.58" departLane="best" from="360610647" to="-166192663#1"/>
  <trip id="bus28" type="bus_bus" depart="5.64" departLane="best" from="164606041" to="-165859122#0"/>
  <trip id="bus29" type="bus_bus" depart="5.7" departLane="best" from="360610647" to="166118878#3"/>
  <trip id="bus30" type="bus_bus" depart="5.76" departLane="best" from="360610647" to="-166142450#2"/>
  <trip id="bus31" type="bus_bus" depart="5.82" departLane="best" from="164606041" to="-165503738#0"/>
  <trip id="bus32" type="bus_bus" depart="5.88" departLane="best" from="164606041" to="-165937403#0"/>
  <trip id="bus33" type="bus_bus" depart="5.94" departLane="best" from="164606041" to="-796855804#0"/>
  <trip id="bus34" type="bus_bus" depart="6.16" departLane="best" from="360610647" to="-165933887#2"/>
  <trip id="bus35" type="bus_bus" depart="6.38" departLane="best" from="360610647" to="165556872#6"/>
  <trip id="bus36" type="bus_bus" depart="6.6" departLane="best" from="360610647" to="717856664#0"/>
  <trip id="bus37" type="bus_bus" depart="6.666" departLane="best" from="360610647" to="1181957264"/>
  <trip id="bus38" type="bus_bus" depart="6.732" departLane="best" from="360610647" to="-775843764"/>
  <trip id="bus39" type="bus_bus" depart="6.798" departLane="best" from="360610647" to="166137568#1"/>
  <trip id="bus40" type="bus_bus" depart="6.864" departLane="best" from="360610647" to="-165859132#0"/>
  <trip id="bus41" type="bus_bus" depart="6.93" departLane="best" from="164606041" to="-167849600#1"/>
  <trip id="bus42" type="bus_bus" depart="6.996" departLane="best" from="360610647" to="-502228154#0"/>
  <trip id="bus43" type="bus_bus" depart="7.062" departLane="best" from="164606041" to="-165933115#0"/>
  <trip id="bus44" type="bus_bus" depart="7.128" departLane="best" from="164606041" to="655967770"/>
  <trip id="bus45" type="bus_bus" depart="7.194" departLane="best" from="164606041" to="234958363"/>
  <trip id="bus46" type="bus_bus" depart="7.26" departLane="best" from="164606041" to="1227396637"/>
  <trip id="bus47" type="bus_bus" depart="7.59" departLane="best" from="164606041" to="722411317"/>
  <trip id="bus48" type="bus_bus" depart="7.92" departLane="best" from="164606041" to="-166118185#4"/>
  <trip id="bus49" type="bus_bus" depart="8.58" departLane="best" from="360610647" to="-166140730"/>
  <trip id="bus50" type="bus_bus" depart="8.674" departLane="best" from="164606041" to="-502226052#3"/>
  <trip id="bus51" type="bus_bus" depart="8.769" departLane="best" from="164606041" to="760090629"/>
  <trip id="bus52" type="bus_bus" depart="8.863" departLane="best" from="164606041" to="-1104206009"/>
  <trip id="bus53" type="bus_bus" depart="8.957" departLane="best" from="360610647" to="166192538#1"/>
  <trip id="bus54" type="bus_bus" depart="9.051" departLane="best" from="164606041" to="-660542912"/>
  <trip id="bus55" type="bus_bus" depart="9.146" departLane="best" from="360610647" to="391424543"/>
  <trip id="bus56" type="bus_bus" depart="9.24" departLane="best" from="164606041" to="548310801#1"/>
  <trip id="bus57" type="bus_bus" depart="9.405" departLane="best" from="164606041" to="-722411312"/>
  <trip id="bus58" type="bus_bus" depart="9.57" departLane="best" from="164606041" to="166138494#2"/>
  <trip id="bus59" type="bus_bus" depart="9.735" departLane="best" from="360610647" to="166141453#1"/>
  <trip id="bus60" type="bus_bus" depart="9.9" departLane="best" from="164606041" to="-794664387#0"/>
  <trip id="bus61" type="bus_bus" depart="10.065" departLane="best" from="164606041" to="-37402662#1"/>
  <trip id="bus62" type="bus_bus" depart="10.23" departLane="best" from="164606041" to="511890777"/>
  <trip id="bus63" type="bus_bus" depart="10.395" departLane="best" from="360610647" to="165873270"/>
  <trip id="bus64" type="bus_bus" depart="10.56" departLane="best" from="360610647" to="-165932875#1"/>
  <trip id="bus65" type="bus_bus" depart="10.89" departLane="best" from="360610647" to="-795034177#1"/>
  <trip id="bus66" type="bus_bus" depart="11.22" departLane="best" from="164606041" to="77482415#1"/>
  <trip id="bus67" type="bus_bus" depart="11.271" departLane="best" from="360610647" to="-166134931#1"/>
  <trip id="bus68" type="bus_bus" depart="11.322" departLane="best" from="360610647" to="-37398493#0"/>
  <trip id="bus69" type="bus_bus" depart="11.372" departLane="best" from="360610647" to="658568392#0"/>
  <trip id="bus70" type="bus_bus" depart="11.423" departLane="best" from="360610647" to="795055151#1"/>
  <trip id="bus71" type="bus_bus" depart="11.474" departLane="best" from="360610647" to="-165864127#6"/>
  <trip id="bus72" type="bus_bus" depart="11.525" departLane="best" from="164606041" to="-658568803#0"/>
  <trip id="bus73" type="bus_bus" depart="11.575" departLane="best" from="360610647" to="-1009742014"/>
  <trip id="bus74" type="bus_bus" depart="11.626" departLane="best" from="360610647" to="-794794069#2"/>
  <trip id="bus75" type="bus_bus" depart="11.677" departLane="best" from="360610647" to="-458811959#1"/>
  <trip id="bus76" type="bus_bus" depart="11.728" departLane="best" from="164606041" to="37399322#1"/>
  <trip id="bus77" type="bus_bus" depart="11.778" departLane="best" from="360610647" to="-660001920#1"/>
  <trip id="bus78" type="bus_bus" depart="11.829" departLane="best" from="360610647" to="795055155"/>
  <trip id="bus79" type="bus_bus" depart="11.88" departLane="best" from="360610647" to="77488329#1"/>
  <trip id="bus80" type="bus_bus" depart="12.045" departLane="best" from="360610647" to="-166138509#5"/>
  <trip id="bus81" type="bus_bus" depart="12.21" departLane="best" from="164606041" to="816394214#5"/>
  <trip id="bus82" type="bus_bus" depart="12.375" departLane="best" from="164606041" to="-166136285#0"/>
  <trip id="bus83" type="bus_bus" depart="12.54" departLane="best" from="164606041" to="-166134928#0"/>
  <trip id="bus84" type="bus_bus" depart="12.76" departLane="best" from="164606041" to="-795034166#0"/>
  <trip id="bus85" type="bus_bus" depart="12.98" departLane="best" from="360610647" to="-166192524#1"/>
  <trip id="bus86" type="bus_bus" depart="13.2" departLane="best" from="164606041" to="-165859125#0"/>
  <trip id="bus87" type="bus_bus" depart="13.283" departLane="best" from="164606041" to="-511862491#2"/>
  <trip id="bus88" type="bus_bus" depart="13.365" departLane="best" from="360610647" to="-795034174"/>
  <trip id="bus89" type="bus_bus" depart="13.447" departLane="best" from="360610647" to="-795055153#0"/>
  <trip id="bus90" type="bus_bus" depart="13.53" departLane="best" from="360610647" to="-166134932#0"/>
  <trip id="bus91" type="bus_bus" depart="13.612" departLane="best" from="360610647" to="801449707"/>
  <trip id="bus92" type="bus_bus" depart="13.695" departLane="best" from="164606041" to="165864138#0"/>
  <trip id="bus93" type="bus_bus" depart="13.777" departLane="best" from="164606041" to="1219806284#20"/>
  <trip id="bus94" type="bus_bus" depart="13.86" departLane="best" from="164606041" to="795694459#2"/>
  <trip id="bus95" type="bus_bus" depart="13.992" departLane="best" from="360610647" to="-795082809"/>
  <trip id="bus96" type="bus_bus" depart="14.124" departLane="best" from="360610647" to="37398538#5"/>
  <trip id="bus97" type="bus_bus" depart="14.256" departLane="best" from="360610647" to="166118878#7"/>
  <trip id="bus98" type="bus_bus" depart="14.388" departLane="best" from="164606041" to="660542919"/>
  <trip id="bus99" type="bus_bus" depart="14.52" departLane="best" from="164606041" to="-795710145#1"/>
  <trip id="bus100" type="bus_bus" depart="14.614" departLane="best" from="164606041" to="-166132712#0"/>
  <trip id="bus101" type="bus_bus" depart="14.709" departLane="best" from="360610647" to="165932041"/>
  <trip id="bus102" type="bus_bus" depart="14.803" departLane="best" from="164606041" to="1126004345#2"/>
  <trip id="bus103" type="bus_bus" depart="14.897" departLane="best" from="360610647" to="-794672358#1"/>
  <trip id="bus104" type="bus_bus" depart="14.991" departLane="best" from="360610647" to="627350923#1"/>
  <trip id="bus105" type="bus_bus" depart="15.086" departLane="best" from="360610647" to="-165859118"/>
  <trip id="bus106" type="bus_bus" depart="15.18" departLane="best" from="164606041" to="-165876148#0"/>
  <trip id="bus107" type="bus_bus" depart="15.4" departLane="best" from="164606041" to="-794794067#11"/>
  <trip id="bus108" type="bus_bus" depart="15.62" departLane="best" from="360610647" to="166192259#1"/>
  <trip id="bus109" type="bus_bus" depart="15.84" departLane="best" from="164606041" to="165503751#1"/>
  <trip id="bus110" type="bus_bus" depart="15.891" departLane="best" from="164606041" to="166118867#3"/>
  <trip id="bus111" type="bus_bus" depart="15.942" departLane="best" from="360610647" to="816394204"/>
  <trip id="bus112" type="bus_bus" depart="15.992" departLane="best" from="164606041" to="-165867622#0"/>
  <trip id="bus113" type="bus_bus" depart="16.043" departLane="best" from="360610647" to="166134550"/>
  <trip id="bus114" type="bus_bus" depart="16.094" departLane="best" from="360610647" to="391424547#3"/>
  <trip id="bus115" type="bus_bus" depart="16.145" departLane="best" from="360610647" to="166136285#0"/>
  <trip id="bus116" type="bus_bus" depart="16.195" departLane="best" from="360610647" to="166134549#2"/>
  <trip id="bus117" type="bus_bus" depart="16.246" departLane="best" from="360610647" to="165937413"/>
  <trip id="bus118" type="bus_bus" depart="16.297" departLane="best" from="360610647" to="166192270"/>
  <trip id="bus119" type="bus_bus" depart="16.348" departLane="best" from="164606041" to="117367009#2"/>
  <trip id="bus120" type="bus_bus" depart="16.398" departLane="best" from="360610647" to="-166132715#0"/>
  <trip id="bus121" type="bus_bus" depart="16.449" departLane="best" from="360610647" to="37398493#2"/>
  <trip id="bus122" type="bus_bus" depart="16.5" departLane="best" from="360610647" to="-167849631#2"/>
  <trip id="bus123" type="bus_bus" depart="17.16" departLane="best" from="164606041" to="-795055160#1"/>
  <trip id="bus124" type="bus_bus" depart="17.242" departLane="best" from="360610647" to="37398836#4"/>
  <trip id="bus125" type="bus_bus" depart="17.325" departLane="best" from="360610647" to="1126006065"/>
  <trip id="bus126" type="bus_bus" depart="17.407" departLane="best" from="164606041" to="-165932048#2"/>
  <trip id="bus127" type="bus_bus" depart="17.49" departLane="best" from="164606041" to="-37401539#0"/>
  <trip id="bus128" type="bus_bus" depart="17.572" departLane="best" from="164606041" to="-166192268"/>
  <trip id="bus129" type="bus_bus" depart="17.655" departLane="best" from="360610647" to="657884072#1"/>
  <trip id="bus130" type="bus_bus" depart="17.737" departLane="best" from="164606041" to="-165933111#2"/>
  <trip id="bus131" type="bus_bus" depart="17.82" departLane="best" from="360610647" to="-37401539#0"/>
  <trip id="bus132" type="bus_bus" depart="17.985" departLane="best" from="164606041" to="701216011#1"/>
  <trip id="bus133" type="bus_bus" depart="18.15" departLane="best" from="360610647" to="-167849600#2"/>
  <trip id="bus134" type="bus_bus" depart="18.315" departLane="best" from="360610647" to="165501094#3"/>
  <trip id="bus135" type="bus_bus" depart="18.48" departLane="best" from="164606041" to="-658568390#2"/>
  <trip id="bus136" type="bus_bus" depart="18.7" departLane="best" from="164606041" to="794667017#0"/>
  <trip id="bus137" type="bus_bus" depart="18.92" departLane="best" from="360610647" to="391464994#0"/>
  <trip id="bus138" type="bus_bus" depart="19.14" departLane="best" from="164606041" to="660003523#0"/>
  <trip id="bus139" type="bus_bus" depart="19.8" departLane="best" from="360610647" to="165937404#3"/>
</routes>
