<?xml version="1.0" ?>
<routes xmlns:xsi="http://www.w3.org/2001/XMLSchema-instance" xsi:noNamespaceSchemaLocation="http://sumo.dlr.de/xsd/routes_file.xsd">
  <vType id="truck_truck" vClass="truck"/>
  <trip id="truck0" type="truck_truck" depart="0" departLane="best" from="360610647" to="37397059#1"/>
  <trip id="truck1" type="truck_truck" depart="0.11" departLane="best" from="164606041" to="659999694#0"/>
  <trip id="truck2" type="truck_truck" depart="0.22" departLane="best" from="360610647" to="-23565389#5"/>
  <trip id="truck3" type="truck_truck" depart="0.33" departLane="best" from="164606041" to="-629505827#0"/>
  <trip id="truck4" type="truck_truck" depart="0.44" departLane="best" from="164606041" to="166140736#12"/>
  <trip id="truck5" type="truck_truck" depart="0.55" departLane="best" from="360610647" to="-795055143#4"/>
  <trip id="truck6" type="truck_truck" depart="0.66" departLane="best" from="360610647" to="-165932050#2"/>
  <trip id="truck7" type="truck_truck" depart="0.99" departLane="best" from="360610647" to="37400682#4"/>
  <trip id="truck8" type="truck_truck" depart="1.32" departLane="best" from="164606041" to="-474161217"/>
  <trip id="truck9" type="truck_truck" depart="1.98" departLane="best" from="360610647" to="-165503746#5"/>
  <trip id="truck10" type="truck_truck" depart="2.64" departLane="best" from="360610647" to="701216011#0-AddedOnRampEdge"/>
  <trip id="truck11" type="truck_truck" depart="2.86" departLane="best" from="164606041" to="77488342"/>
  <trip id="truck12" type="truck_truck" depart="3.08" departLane="best" from="360610647" to="-794794076#1"/>
  <trip id="truck13" type="truck_truck" depart="3.3" departLane="best" from="164606041" to="-37398835#1"/>
  <trip id="truck14" type="truck_truck" depart="3.63" departLane="best" from="164606041" to="659999133"/>
  <trip id="truck15" type="truck_truck" depart="3.96" departLane="best" from="164606041" to="-165876149#2"/>
  <trip id="truck16" type="truck_truck" depart="4.29" departLane="best" from="164606041" to="511894546#1"/>
  <trip id="truck17" type="truck_truck" depart="4.62" departLane="best" from="360610647" to="165937408"/>
  <trip id="truck18" type="truck_truck" depart="4.752" departLane="best" from="164606041" to="-166134555#0"/>
  <trip id="truck19" type="truck_truck" depart="4.884" departLane="best" from="360610647" to="391457140#0"/>
  <trip id="truck20" type="truck_truck" depart="5.016" departLane="best" from="360610647" to="166192272#2"/>
  <trip id="truck21" type="truck_truck" depart="5.148" departLane="best" from="360610647" to="816394216#10"/>
  <trip id="truck22" type="truck_truck" depart="5.28" departLane="best" from="360610647" to="548310823#2"/>
  <trip id="truck23" type="truck_truck" depart="5.94" departLane="best" from="360610647" to="-795034180#1"/>
  <trip id="truck24" type="truck_truck" depart="6.6" departLane="best" from="164606041" to="-658568392#2"/>
  <trip id="truck25" type="truck_truck" depart="6.765" departLane="best" from="360610647" to="-166189855#2"/>
  <trip id="truck26" type="truck_truck" depart="6.93" departLane="best" from="164606041" to="165503740#1"/>
  <trip id="truck27" type="truck_truck" depart="7.095" departLane="best" from="360610647" to="165932037#0"/>
  <trip id="truck28" type="truck_truck" depart="7.26" departLane="best" from="164606041" to="-795055165#1"/>
  <trip id="truck29" type="truck_truck" depart="7.295" departLane="best" from="360610647" to="37401539#1"/>
  <trip id="truck30" type="truck_truck" depart="7.329" departLane="best" from="360610647" to="-166141464#0"/>
  <trip id="truck31" type="truck_truck" depart="7.364" departLane="best" from="360610647" to="-165873282#0"/>
  <trip id="truck32" type="truck_truck" depart="7.399" departLane="best" from="360610647" to="-37398411#0"/>
  <trip id="truck33" type="truck_truck" depart="7.434" departLane="best" from="164606041" to="1219806284#29"/>
  <trip id="truck34" type="truck_truck" depart="7.468" departLane="best" from="164606041" to="-795081475"/>
  <trip id="truck35" type="truck_truck" depart="7.503" departLane="best" from="164606041" to="164788465#1"/>
  <trip id="truck36" type="truck_truck" depart="7.538" departLane="best" from="360610647" to="796696402#2"/>
  <trip id="truck37" type="truck_truck" depart="7.573" departLane="best" from="164606041" to="-166137329#4"/>
  <trip id="truck38" type="truck_truck" depart="7.607" departLane="best" from="360610647" to="-166137565#0"/>
  <trip id="truck39" type="truck_truck" depart="7.642" departLane="best" from="164606041" to="1009817534"/>
  <trip id="truck40" type="truck_truck" depart="7.677" departLane="best" from="360610647" to="-37398835#5"/>
  <trip id="truck41" type="truck_truck" depart="7.712" departLane="best" from="164606041" to="-37399199#1"/>
  <trip id="truck42" type="truck_truck" depart="7.746" departLane="best" from="164606041" to="-659994462#3"/>
  <trip id="truck43" type="truck_truck" depart="7.781" departLane="best" from="360610647" to="166192278#2"/>
  <trip id="truck44" type="truck_truck" depart="7.816" departLane="best" from="164606041" to="-26398660#2"/>
  <trip id="truck45" type="truck_truck" depart="7.851" departLane="best" from="360610647" to="166137335#2"/>
  <trip id="truck46" type="truck_truck" depart="7.885" departLane="best" from="360610647" to="-502613491"/>
  <trip id="truck47" type="truck_truck" depart="7.92" departLane="best" from="360610647" to="165867632"/>
  <trip id="truck48" type="truck_truck" depart="8.25" departLane="best" from="360610647" to="-165932889"/>
  <trip id="truck49" type="truck_truck" depart="8.58" departLane="best" from="164606041" to="165933117"/>
  <trip id="truck50" type="truck_truck" depart="8.662" departLane="best" from="164606041" to="-779257458#0"/>
  <trip id="truck51" type="truck_truck" depart="8.745" departLane="best" from="164606041" to="795034186#1"/>
  <trip id="truck52" type="truck_truck" depart="8.827" departLane="best" from="164606041" to="701227896"/>
  <trip id="truck53" type="truck_truck" depart="8.91" departLane="best" from="164606041" to="166141462"/>
  <trip id="truck54" type="truck_truck" depart="8.992" departLane="best" from="360610647" to="-166134552#2"/>
  <trip id="truck55" type="truck_truck" depart="9.075" departLane="best" from="164606041" to="816394209"/>
  <trip id="truck56" type="truck_truck" depart="9.157" departLane="best" from="360610647" to="165932037#0"/>
  <trip id="truck57" type="truck_truck" depart="9.24" departLane="best" from="164606041" to="166136292#0"/>
  <trip id="truck58" type="truck_truck" depart="9.264" departLane="best" from="164606041" to="-165932049"/>
  <trip id="truck59" type="truck_truck" depart="9.287" departLane="best" from="360610647" to="816394213#2"/>
  <trip id="truck60" type="truck_truck" depart="9.311" departLane="best" from="164606041" to="166138497#2"/>
  <trip id="truck61" type="truck_truck" depart="9.334" departLane="best" from="360610647" to="-659995255#4"/>
  <trip id="truck62" type="truck_truck" depart="9.358" departLane="best" from="360610647" to="-629505832"/>
  <trip id="truck63" type="truck_truck" depart="9.381" departLane="best" from="360610647" to="-165864138#0"/>
  <trip id="truck64" type="truck_truck" depart="9.405" departLane="best" from="360610647" to="166192273#1"/>
  <trip id="truck65" type="truck_truck" depart="9.429" departLane="best" from="360610647" to="-795081473"/>
  <trip id="truck66" type="truck_truck" depart="9.452" departLane="best" from="360610647" to="-165864152#0"/>
  <trip id="truck67" type="truck_truck" depart="9.476" departLane="best" from="360610647" to="1009817531#2-AddedOnRampEdge"/>
  <trip id="truck68" type="truck_truck" depart="9.499" departLane="best" from="164606041" to="-166132733#1"/>
  <trip id="truck69" type="truck_truck" depart="9.523" departLane="best" from="360610647" to="-166132722#0"/>
  <trip id="truck70" type="truck_truck" depart="9.546" departLane="best" from="164606041" to="658560305"/>
  <trip id="truck71" type="truck_truck" depart="9.57" departLane="best" from="360610647" to="165504121"/>
  <trip id="truck72" type="truck_truck" depart="9.594" departLane="best" from="164606041" to="-165864146#1"/>
  <trip id="truck73" type="truck_truck" depart="9.617" departLane="best" from="164606041" to="-166141459#0"/>
  <trip id="truck74" type="truck_truck" depart="9.641" departLane="best" from="164606041" to="-780404212#1"/>
  <trip id="truck75" type="truck_truck" depart="9.664" departLane="best" from="360610647" to="795034178"/>
  <trip id="truck76" type="truck_truck" depart="9.688" departLane="best" from="164606041" to="794794072#0"/>
  <trip id="truck77" type="truck_truck" depart="9.711" departLane="best" from="360610647" to="660540093#1"/>
  <trip id="truck78" type="truck_truck" depart="9.735" departLane="best" from="360610647" to="795694458#7"/>
  <trip id="truck79" type="truck_truck" depart="9.759" departLane="best" from="360610647" to="-165937419#0"/>
  <trip id="truck80" type="truck_truck" depart="9.782" departLane="best" from="360610647" to="-165876148#0"/>
  <trip id="truck81" type="truck_truck" depart="9.806" departLane="best" from="360610647" to="166118879"/>
  <trip id="truck82" type="truck_truck" depart="9.829" departLane="best" from="164606041" to="166134549#2"/>
  <trip id="truck83" type="truck_truck" depart="9.853" departLane="best" from="164606041" to="165864147#0"/>
  <trip id="truck84" type="truck_truck" depart="9.876" departLane="best" from="164606041" to="117446908#2"/>
  <trip id="truck85" type="truck_truck" depart="9.9" departLane="best" from="164606041" to="-166137568#0"/>
  <trip id="truck86" type="truck_truck" depart="10.12" departLane="best" from="164606041" to="795710138#1"/>
  <trip id="truck87" type="truck_truck" depart="10.34" departLane="best" from="360610647" to="816394214#5"/>
  <trip id="truck88" type="truck_truck" depart="10.56" departLane="best" from="164606041" to="-795034167"/>
  <trip id="truck89" type="truck_truck" depart="10.692" departLane="best" from="164606041" to="-660531076#2"/>
  <trip id="truck90" type="truck_truck" depart="10.824" departLane="best" from="164606041" to="722411317"/>
  <trip id="truck91" type="truck_truck" depart="10.956" departLane="best" from="360610647" to="659999132"/>
  <trip id="truck92" type="truck_truck" depart="11.088" departLane="best" from="360610647" to="-37399340#5"/>
  <trip id="truck93" type="truck_truck" depart="11.22" departLane="best" from="360610647" to="117447268#2"/>
  <trip id="truck94" type="truck_truck" depart="11.88" departLane="best" from="360610647" to="37398452"/>
  <trip id="truck95" type="truck_truck" depart="11.894" departLane="best" from="360610647" to="-717856644#0"/>
  <trip id="truck96" type="truck_truck" depart="11.909" departLane="best" from="164606041" to="775142037"/>
  <trip id="truck97" type="truck_truck" depart="11.923" departLane="best" from="164606041" to="77488339#1"/>
  <trip id="truck98" type="truck_truck" depart="11.937" departLane="best" from="164606041" to="-165932037#0"/>
  <trip id="truck99" type="truck_truck" depart="11.952" departLane="best" from="164606041" to="-166118878#3"/>
  <trip id="truck100" type="truck_truck" depart="11.966" departLane="best" from="164606041" to="-660542912"/>
  <trip id="truck101" type="truck_truck" depart="11.98" departLane="best" from="360610647" to="-796859899#0"/>
  <trip id="truck102" type="truck_truck" depart="11.995" departLane="best" from="360610647" to="-37401538#3"/>
  <trip id="truck103" type="truck_truck" depart="12.009" departLane="best" from="164606041" to="382760164"/>
  <trip id="truck104" type="truck_truck" depart="12.023" departLane="best" from="164606041" to="166132712#0"/>
  <trip id="truck105" type="truck_truck" depart="12.038" departLane="best" from="164606041" to="560417379"/>
  <trip id="truck106" type="truck_truck" depart="12.052" departLane="best" from="164606041" to="816394211#1"/>
  <trip id="truck107" type="truck_truck" depart="12.067" departLane="best" from="360610647" to="-795055153#0"/>
  <trip id="truck108" type="truck_truck" depart="12.081" departLane="best" from="360610647" to="-166142451"/>
  <trip id="truck109" type="truck_truck" depart="12.095" departLane="best" from="164606041" to="165864146#1"/>
  <trip id="truck110" type="truck_truck" depart="12.11" departLane="best" from="360610647" to="165864127#1"/>
  <trip id="truck111" type="truck_truck" depart="12.124" departLane="best" from="360610647" to="-165937402#0"/>
  <trip id="truck112" type="truck_truck" depart="12.138" departLane="best" from="164606041" to="166134552#7"/>
  <trip id="truck113" type="truck_truck" depart="12.153" departLane="best" from="360610647" to="37398836#9"/>
  <trip id="truck114" type="truck_truck" depart="12.167" departLane="best" from="164606041" to="165873285#1"/>
  <trip id="truck115" type="truck_truck" depart="12.181" departLane="best" from="360610647" to="776897193#2"/>
  <trip id="truck116" type="truck_truck" depart="12.196" departLane="best" from="360610647" to="548310807#1-AddedOnRampEdge"/>
  <trip id="truck117" type="truck_truck" depart="12.21" departLane="best" from="164606041" to="-165867625#2"/>
  <trip id="truck118" type="truck_truck" depart="12.224" departLane="best" from="164606041" to="655967767"/>
  <trip id="truck119" type="truck_truck" depart="12.239" departLane="best" from="360610647" to="660001920#2"/>
  <trip id="truck120" type="truck_truck" depart="12.253" departLane="best" from="360610647" to="1180482804-AddedOffRampEdge"/>
  <trip id="truck121" type="truck_truck" depart="12.267" departLane="best" from="360610647" to="659995255#0"/>
  <trip id="truck122" type="truck_truck" depart="12.282" departLane="best" from="164606041" to="655967780#0"/>
  <trip id="truck123" type="truck_truck" depart="12.296" departLane="best" from="164606041" to="-1126006055#1"/>
  <trip id="truck124" type="truck_truck" depart="12.31" departLane="best" from="164606041" to="660003524#1"/>
  <trip id="truck125" type="truck_truck" depart="12.325" departLane="best" from="164606041" to="-37397956#1"/>
  <trip id="truck126" type="truck_truck" depart="12.339" departLane="best" from="164606041" to="164600461#0"/>
  <trip id="truck127" type="truck_truck" depart="12.353" departLane="best" from="164606041" to="166141474#2"/>
  <trip id="truck128" type="truck_truck" depart="12.368" departLane="best" from="360610647" to="-502613497"/>
  <trip id="truck129" type="truck_truck" depart="12.382" departLane="best" from="360610647" to="77488343#2"/>
  <trip id="truck130" type="truck_truck" depart="12.397" departLane="best" from="360610647" to="-166134933#3"/>
  <trip id="truck131" type="truck_truck" depart="12.411" departLane="best" from="360610647" to="-166138495#0"/>
  <trip id="truck132" type="truck_truck" depart="12.425" departLane="best" from="164606041" to="-165879637#1"/>
  <trip id="truck133" type="truck_truck" depart="12.44" departLane="best" from="360610647" to="-166192523#0"/>
  <trip id="truck134" type="truck_truck" depart="12.454" departLane="best" from="164606041" to="166192276#1"/>
  <trip id="truck135" type="truck_truck" depart="12.468" departLane="best" from="360610647" to="-166136291#0"/>
  <trip id="truck136" type="truck_truck" depart="12.483" departLane="best" from="360610647" to="-165859126#0"/>
  <trip id="truck137" type="truck_truck" depart="12.497" departLane="best" from="360610647" to="-37401538#3"/>
  <trip id="truck138" type="truck_truck" depart="12.511" departLane="best" from="360610647" to="165503753#0"/>
  <trip id="truck139" type="truck_truck" depart="12.526" departLane="best" from="360610647" to="1219806284#20"/>
  <trip id="truck140" type="truck_truck" depart="12.54" departLane="best" from="164606041" to="-472302422#0"/>
  <trip id="truck141" type="truck_truck" depart="12.87" departLane="best" from="360610647" to="548310801#2"/>
  <trip id="truck142" type="truck_truck" depart="13.2" departLane="best" from="360610647" to="166138511#3"/>
  <trip id="truck143" type="truck_truck" depart="13.365" departLane="best" from="360610647" to="-794794067#7"/>
  <trip id="truck144" type="truck_truck" depart="13.53" departLane="best" from="164606041" to="701216011#3"/>
  <trip id="truck145" type="truck_truck" depart="13.695" departLane="best" from="360610647" to="-165933887#2"/>
  <trip id="truck146" type="truck_truck" depart="13.86" departLane="best" from="164606041" to="166134552#0"/>
  <trip id="truck147" type="truck_truck" depart="13.954" departLane="best" from="164606041" to="-37398493#3"/>
  <trip id="truck148" type="truck_truck" depart="14.049" departLane="best" from="164606041" to="-165864154#2"/>
  <trip id="truck149" type="truck_truck" depart="14.143" departLane="best" from="164606041" to="511862493#2-AddedOnRampEdge"/>
  <trip id="truck150" type="truck_truck" depart="14.237" departLane="best" from="360610647" to="-658568803#0"/>
  <trip id="truck151" type="truck_truck" depart="14.331" departLane="best" from="164606041" to="703794532#0"/>
  <trip id="truck152" type="truck_truck" depart="14.426" departLane="best" from="164606041" to="-166118878#3"/>
  <trip id="truck153" type="truck_truck" depart="14.52" departLane="best" from="164606041" to="165864135#1"/>
  <trip id="truck154" type="truck_truck" depart="14.536" departLane="best" from="360610647" to="511862474#1"/>
  <trip id="truck155" type="truck_truck" depart="14.551" departLane="best" from="360610647" to="166137335#6"/>
  <trip id="truck156" type="truck_truck" depart="14.567" departLane="best" from="164606041" to="252283907#0"/>
  <trip id="truck157" type="truck_truck" depart="14.583" departLane="best" from="360610647" to="795055145#0"/>
  <trip id="truck158" type="truck_truck" depart="14.599" departLane="best" from="164606041" to="37398450#3"/>
  <trip id="truck159" type="truck_truck" depart="14.614" departLane="best" from="164606041" to="-795034185"/>
  <trip id="truck160" type="truck_truck" depart="14.63" departLane="best" from="360610647" to="-795055148"/>
  <trip id="truck161" type="truck_truck" depart="14.646" departLane="best" from="164606041" to="165933887#1"/>
  <trip id="truck162" type="truck_truck" depart="14.661" departLane="best" from="164606041" to="-37398835#7"/>
  <trip id="truck163" type="truck_truck" depart="14.677" departLane="best" from="164606041" to="697413077#0"/>
  <trip id="truck164" type="truck_truck" depart="14.693" departLane="best" from="164606041" to="390468988#2"/>
  <trip id="truck165" type="truck_truck" depart="14.709" departLane="best" from="164606041" to="-758761371"/>
  <trip id="truck166" type="truck_truck" depart="14.724" departLane="best" from="164606041" to="-37398453#1"/>
  <trip id="truck167" type="truck_truck" depart="14.74" departLane="best" from="360610647" to="-166141465#1"/>
  <trip id="truck168" type="truck_truck" depart="14.756" departLane="best" from="360610647" to="1009742014"/>
  <trip id="truck169" type="truck_truck" depart="14.771" departLane="best" from="360610647" to="-117447268#2"/>
  <trip id="truck170" type="truck_truck" depart="14.787" departLane="best" from="164606041" to="794794067#10"/>
  <trip id="truck171" type="truck_truck" depart="14.803" departLane="best" from="360610647" to="1137220003#2"/>
  <trip id="truck172" type="truck_truck" depart="14.819" departLane="best" from="360610647" to="-37400599#5"/>
  <trip id="truck173" type="truck_truck" depart="14.834" departLane="best" from="360610647" to="-165933110"/>
  <trip id="truck174" type="truck_truck" depart="14.85" departLane="best" from="360610647" to="-795694459#2"/>
  <trip id="truck175" type="truck_truck" depart="14.866" departLane="best" from="360610647" to="166134563#0"/>
  <trip id="truck176" type="truck_truck" depart="14.881" departLane="best" from="164606041" to="775142034#0"/>
  <trip id="truck177" type="truck_truck" depart="14.897" departLane="best" from="360610647" to="-660001919"/>
  <trip id="truck178" type="truck_truck" depart="14.913" departLane="best" from="164606041" to="-794794076#1"/>
  <trip id="truck179" type="truck_truck" depart="14.929" departLane="best" from="164606041" to="-794794085#2"/>
  <trip id="truck180" type="truck_truck" depart="14.944" departLane="best" from="164606041" to="-37398116"/>
  <trip id="truck181" type="truck_truck" depart="14.96" departLane="best" from="360610647" to="165504124"/>
  <trip id="truck182" type="truck_truck" depart="14.976" departLane="best" from="164606041" to="165873274#0"/>
  <trip id="truck183" type="truck_truck" depart="14.991" departLane="best" from="360610647" to="660533574#0"/>
  <trip id="truck184" type="truck_truck" depart="15.007" departLane="best" from="164606041" to="-795694451#0"/>
  <trip id="truck185" type="truck_truck" depart="15.023" departLane="best" from="164606041" to="794794064#5"/>
  <trip id="truck186" type="truck_truck" depart="15.039" departLane="best" from="360610647" to="-165932876#1"/>
  <trip id="truck187" type="truck_truck" depart="15.054" departLane="best" from="164606041" to="-166142034"/>
  <trip id="truck188" type="truck_truck" depart="15.07" departLane="best" from="360610647" to="627350923#1"/>
  <trip id="truck189" type="truck_truck" depart="15.086" departLane="best" from="360610647" to="-795710147"/>
  <trip id="truck190" type="truck_truck" depart="15.101" departLane="best" from="360610647" to="-780404208#2"/>
  <trip id="truck191" type="truck_truck" depart="15.117" departLane="best" from="360610647" to="360610648"/>
  <trip id="truck192" type="truck_truck" depart="15.133" departLane="best" from="360610647" to="-165932050#1"/>
  <trip id="truck193" type="truck_truck" depart="15.149" departLane="best" from="360610647" to="-165879632#3"/>
  <trip id="truck194" type="truck_truck" depart="15.164" departLane="best" from="360610647" to="701216011#3"/>
  <trip id="truck195" type="truck_truck" depart="15.18" departLane="best" from="360610647" to="166132718#5"/>
  <trip id="truck196" type="truck_truck" depart="15.263" departLane="best" from="164606041" to="414214583"/>
  <trip id="truck197" type="truck_truck" depart="15.345" departLane="best" from="164606041" to="166138497#2"/>
  <trip id="truck198" type="truck_truck" depart="15.428" departLane="best" from="164606041" to="-794667018#2"/>
  <trip id="truck199" type="truck_truck" depart="15.51" departLane="best" from="164606041" to="166192529#1"/>
  <trip id="truck200" type="truck_truck" depart="15.592" departLane="best" from="164606041" to="37402560#1"/>
  <trip id="truck201" type="truck_truck" depart="15.675" departLane="best" from="164606041" to="166192533"/>
  <trip id="truck202" type="truck_truck" depart="15.757" departLane="best" from="360610647" to="1180482804-AddedOffRampEdge"/>
  <trip id="truck203" type="truck_truck" depart="15.84" departLane="best" from="164606041" to="37398563"/>
  <trip id="truck204" type="truck_truck" depart="15.95" departLane="best" from="360610647" to="37399322#1"/>
  <trip id="truck205" type="truck_truck" depart="16.06" departLane="best" from="164606041" to="-795055162#0"/>
  <trip id="truck206" type="truck_truck" depart="16.17" departLane="best" from="164606041" to="37400682#1"/>
  <trip id="truck207" type="truck_truck" depart="16.28" departLane="best" from="164606041" to="795034182#0"/>
  <trip id="truck208" type="truck_truck" depart="16.39" departLane="best" from="164606041" to="-166118862#2"/>
  <trip id="truck209" type="truck_truck" depart="16.5" departLane="best" from="360610647" to="476159049#1"/>
  <trip id="truck210" type="truck_truck" depart="16.83" departLane="best" from="164606041" to="-166138509#2"/>
  <trip id="truck211" type="truck_truck" depart="17.16" departLane="best" from="164606041" to="-166134552#3"/>
  <trip id="truck212" type="truck_truck" depart="17.172" departLane="best" from="360610647" to="37402559#2"/>
  <trip id="truck213" type="truck_truck" depart="17.184" departLane="best" from="164606041" to="-165937403#3"/>
  <trip id="truck214" type="truck_truck" depart="17.197" departLane="best" from="164606041" to="165933887#1"/>
  <trip id="truck215" type="truck_truck" depart="17.209" departLane="best" from="360610647" to="331628832#0"/>
  <trip id="truck216" type="truck_truck" depart="17.221" departLane="best" from="360610647" to="37399199#4"/>
  <trip id="truck217" type="truck_truck" depart="17.233" departLane="best" from="164606041" to="-697413076#1"/>
  <trip id="truck218" type="truck_truck" depart="17.246" departLane="best" from="164606041" to="165932876#0"/>
  <trip id="truck219" type="truck_truck" depart="17.258" departLane="best" from="360610647" to="-166132713#4"/>
  <trip id="truck220" type="truck_truck" depart="17.27" departLane="best" from="360610647" to="165932045"/>
  <trip id="truck221" type="truck_truck" depart="17.282" departLane="best" from="360610647" to="360610647"/>
  <trip id="truck222" type="truck_truck" depart="17.294" departLane="best" from="360610647" to="-37397956#0"/>
  <trip id="truck223" type="truck_truck" depart="17.307" departLane="best" from="360610647" to="-165937401#2"/>
  <trip id="truck224" type="truck_truck" depart="17.319" departLane="best" from="164606041" to="165933888#2"/>
  <trip id="truck225" type="truck_truck" depart="17.331" departLane="best" from="164606041" to="-165864128#1"/>
  <trip id="truck226" type="truck_truck" depart="17.343" departLane="best" from="360610647" to="-37399199#5"/>
  <trip id="truck227" type="truck_truck" depart="17.356" departLane="best" from="164606041" to="-717856664#0"/>
  <trip id="truck228" type="truck_truck" depart="17.368" departLane="best" from="164606041" to="37400704#0"/>
  <trip id="truck229" type="truck_truck" depart="17.38" departLane="best" from="164606041" to="-666021451#4"/>
  <trip id="truck230" type="truck_truck" depart="17.392" departLane="best" from="360610647" to="166118879"/>
  <trip id="truck231" type="truck_truck" depart="17.404" departLane="best" from="164606041" to="-658560130#1"/>
  <trip id="truck232" type="truck_truck" depart="17.417" departLane="best" from="164606041" to="-795055160#2"/>
  <trip id="truck233" type="truck_truck" depart="17.429" departLane="best" from="164606041" to="-795168530#1"/>
  <trip id="truck234" type="truck_truck" depart="17.441" departLane="best" from="164606041" to="-165932040#0"/>
  <trip id="truck235" type="truck_truck" depart="17.453" departLane="best" from="164606041" to="37399340#3"/>
  <trip id="truck236" type="truck_truck" depart="17.466" departLane="best" from="164606041" to="-166132713#7"/>
  <trip id="truck237" type="truck_truck" depart="17.478" departLane="best" from="164606041" to="37397957#0"/>
  <trip id="truck238" type="truck_truck" depart="17.49" departLane="best" from="164606041" to="518192057#0"/>
  <trip id="truck239" type="truck_truck" depart="17.502" departLane="best" from="360610647" to="-502228157"/>
  <trip id="truck240" type="truck_truck" depart="17.514" departLane="best" from="360610647" to="165873279"/>
  <trip id="truck241" type="truck_truck" depart="17.527" departLane="best" from="360610647" to="-795055162#0"/>
  <trip id="truck242" type="truck_truck" depart="17.539" departLane="best" from="164606041" to="795055172#2"/>
  <trip id="truck243" type="truck_truck" depart="17.551" departLane="best" from="164606041" to="794794067#7"/>
  <trip id="truck244" type="truck_truck" depart="17.563" departLane="best" from="360610647" to="-165864152#7"/>
  <trip id="truck245" type="truck_truck" depart="17.576" departLane="best" from="360610647" to="-165932876#0"/>
  <trip id="truck246" type="truck_truck" depart="17.588" departLane="best" from="164606041" to="165873280#0"/>
  <trip id="truck247" type="truck_truck" depart="17.6" departLane="best" from="360610647" to="717856664#1"/>
  <trip id="truck248" type="truck_truck" depart="17.612" departLane="best" from="360610647" to="795055146#0"/>
  <trip id="truck249" type="truck_truck" depart="17.624" departLane="best" from="360610647" to="794794067#10"/>
  <trip id="truck250" type="truck_truck" depart="17.637" departLane="best" from="360610647" to="-795055148"/>
  <trip id="truck251" type="truck_truck" depart="17.649" departLane="best" from="164606041" to="-776655373#1"/>
  <trip id="truck252" type="truck_truck" depart="17.661" departLane="best" from="360610647" to="167849607#0"/>
  <trip id="truck253" type="truck_truck" depart="17.673" departLane="best" from="164606041" to="401207545#0"/>
  <trip id="truck254" type="truck_truck" depart="17.686" departLane="best" from="360610647" to="-166132725#1"/>
  <trip id="truck255" type="truck_truck" depart="17.698" departLane="best" from="164606041" to="-419888274#0"/>
  <trip id="truck256" type="truck_truck" depart="17.71" departLane="best" from="360610647" to="476159050#0"/>
  <trip id="truck257" type="truck_truck" depart="17.722" departLane="best" from="164606041" to="795694455"/>
  <trip id="truck258" type="truck_truck" depart="17.734" departLane="best" from="360610647" to="165864127#1"/>
  <trip id="truck259" type="truck_truck" depart="17.747" departLane="best" from="164606041" to="37398538#5"/>
  <trip id="truck260" type="truck_truck" depart="17.759" departLane="best" from="164606041" to="166189855#2"/>
  <trip id="truck261" type="truck_truck" depart="17.771" departLane="best" from="164606041" to="-166132733#1"/>
  <trip id="truck262" type="truck_truck" depart="17.783" departLane="best" from="360610647" to="-166134549#3"/>
  <trip id="truck263" type="truck_truck" depart="17.796" departLane="best" from="360610647" to="-794688368#1"/>
  <trip id="truck264" type="truck_truck" depart="17.808" departLane="best" from="164606041" to="-795055143#4"/>
  <trip id="truck265" type="truck_truck" depart="17.82" departLane="best" from="164606041" to="-165503737#2"/>
  <trip id="truck266" type="truck_truck" depart="18.48" departLane="best" from="164606041" to="23565389#0"/>
  <trip id="truck267" type="truck_truck" depart="18.81" departLane="best" from="164606041" to="816394206#2"/>
  <trip id="truck268" type="truck_truck" depart="19.14" departLane="best" from="164606041" to="-795168528#4"/>
  <trip id="truck269" type="truck_truck" depart="19.47" departLane="best" from="164606041" to="660003524#3"/>