<?xml version="1.0" encoding="UTF-8"?>

<!-- generated on 2024-07-30 19:02:31.816848 by osmWebWizard.py v1_20_0+0002-343658e7c64
<configuration>
    <net-file value="C:\Users\jiryeong\2024-07-30-19-01-39\osm.net.xml.gz"/>
    <output-trip-file value="C:\Users\jiryeong\2024-07-30-19-01-39\osm.passenger.trips.xml"/>
    <route-file value="C:\Users\jiryeong\2024-07-30-19-01-39\osm.passenger.rou.xml"/>
    <prefix value="veh"/>
    <trip-attributes value="departLane=&quot;best&quot;"/>
    <fringe-start-attributes value="departSpeed=&quot;max&quot;"/>
    <vehicle-class value="passenger"/>
    <lanes value="True"/>
    <fringe-factor value="5"/>
    <allow-fringe.min-length value="1000.0"/>
    <via-edge-types value="highway.motorway,highway.motorway_link,highway.trunk_link,highway.primary_link,highway.secondary_link,highway.tertiary_link"/>
    <min-distance value="300.0"/>
    <min-distance.fringe value="10.0"/>
    <remove-loops value="True"/>
    <validate value="True"/>
    <insertion-density value="12.0"/>
</configuration>
-->

<!-- generated on 2024-07-30 19:02:27 by Eclipse SUMO duarouter Version 1.20.0
<configuration xmlns:xsi="http://www.w3.org/2001/XMLSchema-instance" xsi:noNamespaceSchemaLocation="http://sumo.dlr.de/xsd/duarouterConfiguration.xsd">

    <input>
        <net-file value="C:\Users\jiryeong\2024-07-30-19-01-39\osm.net.xml.gz"/>
        <route-files value="C:\Users\jiryeong\2024-07-30-19-01-39\osm.passenger.trips.xml"/>
    </input>

    <output>
        <output-file value="C:\Users\jiryeong\2024-07-30-19-01-39\osm.passenger.trips.xml.tmp"/>
        <alternatives-output value="NUL"/>
        <write-trips value="true"/>
    </output>

    <processing>
        <remove-loops value="true"/>
    </processing>

    <time>
        <begin value="0.0"/>
        <end value="3600.0"/>
    </time>

    <report>
        <no-warnings value="true"/>
        <ignore-errors value="true"/>
        <no-step-log value="true"/>
    </report>

</configuration>
-->

<routes xmlns:xsi="http://www.w3.org/2001/XMLSchema-instance" xsi:noNamespaceSchemaLocation="http://sumo.dlr.de/xsd/routes_file.xsd">
    <vType id="veh_passenger" vClass="passenger"/>
    <trip id="veh0" type="veh_passenger" depart="0.00" departLane="best" from="-166138495#1" to="-165503746#5"/>
    <trip id="veh1" type="veh_passenger" depart="0.66" departLane="best" from="474161217" to="37397059#1"/>
    <trip id="veh2" type="veh_passenger" depart="1.32" departLane="best" from="37401445#1" to="167849629#1"/>
    <trip id="veh3" type="veh_passenger" depart="1.97" departLane="best" from="77488329#1" to="-165933887#1"/>
    <trip id="veh4" type="veh_passenger" depart="2.63" departLane="best" from="795082810" to="165504123#0"/>
    <trip id="veh5" type="veh_passenger" depart="3.29" departLane="best" from="215387632#2" to="165556872#14"/>
    <trip id="veh6" type="veh_passenger" depart="3.95" departLane="best" from="-1229702087" to="-166192664"/>
    <trip id="veh7" type="veh_passenger" depart="4.61" departLane="best" departSpeed="max" from="166140728#0" to="165932035#2"/>
    <trip id="veh8" type="veh_passenger" depart="5.26" departLane="best" from="234958312#1" to="-166132712#2"/>
    <trip id="veh9" type="veh_passenger" depart="5.92" departLane="best" from="511894544#1" to="117367009#3"/>
    <trip id="veh10" type="veh_passenger" depart="6.58" departLane="best" from="511862493#2-AddedOnRampEdge" to="-365843786"/>
    <trip id="veh11" type="veh_passenger" depart="7.24" departLane="best" from="-702119863#1" to="-166137566"/>
    <trip id="veh12" type="veh_passenger" depart="7.89" departLane="best" from="795055165#1" to="77488339#0"/>
    <trip id="veh13" type="veh_passenger" depart="8.55" departLane="best" from="-165932882#3" to="-165937405#0"/>
    <trip id="veh14" type="veh_passenger" depart="9.21" departLane="best" from="659994462#1" to="166134552#0"/>
    <trip id="veh15" type="veh_passenger" depart="9.87" departLane="best" from="511890770#2-AddedOnRampEdge" to="37401540#1"/>
    <trip id="veh16" type="veh_passenger" depart="10.53" departLane="best" from="165873267#1" to="795694456#2"/>
    <trip id="veh17" type="veh_passenger" depart="11.18" departLane="best" from="794794069#0" to="165932876#2"/>
    <trip id="veh18" type="veh_passenger" depart="11.84" departLane="best" from="655967753" to="166136286#0"/>
    <trip id="veh19" type="veh_passenger" depart="12.50" departLane="best" from="660543864#0" to="166118185#1"/>
    <trip id="veh20" type="veh_passenger" depart="13.16" departLane="best" from="331628832#0" to="-165864130#5"/>
    <trip id="veh21" type="veh_passenger" depart="13.82" departLane="best" from="-333038823#1" to="-655967776"/>
    <trip id="veh22" type="veh_passenger" depart="14.47" departLane="best" departSpeed="max" from="-165879627" to="-37398493#2"/>
    <trip id="veh23" type="veh_passenger" depart="15.13" departLane="best" from="-166137564" to="-794794074#4"/>
    <trip id="veh24" type="veh_passenger" depart="15.79" departLane="best" from="-780404213#0" to="-168096684"/>
    <trip id="veh25" type="veh_passenger" depart="16.45" departLane="best" departSpeed="max" from="-419888279" to="-794794085#0"/>
    <trip id="veh26" type="veh_passenger" depart="17.10" departLane="best" from="166138511#3" to="166134568#1"/>
    <trip id="veh27" type="veh_passenger" depart="17.76" departLane="best" from="-166138500#0" to="37401539#1"/>
    <trip id="veh28" type="veh_passenger" depart="18.42" departLane="best" from="-166137335#5" to="-795034180#5"/>
    <trip id="veh29" type="veh_passenger" depart="19.08" departLane="best" from="816394210#1" to="166138511#1"/>
    <trip id="veh30" type="veh_passenger" depart="19.74" departLane="best" from="165932875#0" to="-215390613#1"/>
    <trip id="veh31" type="veh_passenger" depart="20.39" departLane="best" from="658568803#0" to="476159052"/>
    <trip id="veh32" type="veh_passenger" depart="21.05" departLane="best" from="37395919#3" to="165556872#14"/>
    <trip id="veh33" type="veh_passenger" depart="21.71" departLane="best" from="658568388#2" to="-476159050#1"/>
    <trip id="veh34" type="veh_passenger" depart="22.37" departLane="best" from="-167849600#0" to="795034177#2"/>
    <trip id="veh35" type="veh_passenger" depart="23.03" departLane="best" from="718305545" to="-660540094#2"/>
    <trip id="veh36" type="veh_passenger" depart="23.68" departLane="best" from="166141453#0" to="-795055171"/>
    <trip id="veh37" type="veh_passenger" depart="24.34" departLane="best" from="783337514#1" to="1209269859"/>
    <trip id="veh38" type="veh_passenger" depart="25.00" departLane="best" from="391463715#4" to="-37401445#3"/>
    <trip id="veh39" type="veh_passenger" depart="25.66" departLane="best" from="165932890#1" to="-472282027"/>
    <trip id="veh40" type="veh_passenger" depart="26.32" departLane="best" from="166118867#0" to="77488349"/>
    <trip id="veh41" type="veh_passenger" depart="26.97" departLane="best" from="165864130#9" to="-332679080#1"/>
    <trip id="veh42" type="veh_passenger" depart="27.63" departLane="best" from="862406250#1" to="165847318"/>
    <trip id="veh43" type="veh_passenger" depart="28.29" departLane="best" from="165932875#1" to="-165864132#2"/>
    <trip id="veh44" type="veh_passenger" depart="28.95" departLane="best" from="165937409" to="-166137562#1"/>
    <trip id="veh45" type="veh_passenger" depart="29.60" departLane="best" from="-502228157" to="-816394214#1"/>
    <trip id="veh46" type="veh_passenger" depart="30.26" departLane="best" from="165864152#1" to="-795034186#1"/>
    <trip id="veh47" type="veh_passenger" depart="30.92" departLane="best" from="816394216#3" to="165867625#2"/>
    <trip id="veh48" type="veh_passenger" depart="31.58" departLane="best" from="795694452#0" to="667383252#0"/>
    <trip id="veh49" type="veh_passenger" depart="32.24" departLane="best" departSpeed="max" from="-118416182#1" to="37400083#0"/>
    <trip id="veh50" type="veh_passenger" depart="32.89" departLane="best" from="-166192681#0" to="165876151#1"/>
    <trip id="veh51" type="veh_passenger" depart="33.55" departLane="best" departSpeed="max" from="-419888279" to="166140721#0"/>
    <trip id="veh52" type="veh_passenger" depart="34.21" departLane="best" departSpeed="max" from="-165937411#1" to="1009817531#5"/>
    <trip id="veh53" type="veh_passenger" depart="34.87" departLane="best" from="1009817537" to="795055153#1"/>
    <trip id="veh54" type="veh_passenger" depart="35.53" departLane="best" from="718081074" to="-472282027"/>
    <trip id="veh55" type="veh_passenger" depart="36.18" departLane="best" from="-165503746#0" to="-166141469#2"/>
    <trip id="veh56" type="veh_passenger" depart="36.84" departLane="best" from="-780404208#2" to="702286343#0"/>
    <trip id="veh57" type="veh_passenger" depart="37.50" departLane="best" from="-536159585#0" to="-166138509#2"/>
    <trip id="veh58" type="veh_passenger" depart="38.16" departLane="best" from="166134549#2" to="-166137335#1"/>
    <trip id="veh59" type="veh_passenger" depart="38.82" departLane="best" departSpeed="max" from="390404843#0" to="-165876161"/>
    <trip id="veh60" type="veh_passenger" depart="39.47" departLane="best" from="-476159045#0" to="-165873267#0"/>
    <trip id="veh61" type="veh_passenger" depart="40.13" departLane="best" from="-1009416211#1" to="717856664#0"/>
    <trip id="veh62" type="veh_passenger" depart="40.79" departLane="best" departSpeed="max" from="-1224943813" to="794794072#6"/>
    <trip id="veh63" type="veh_passenger" depart="41.45" departLane="best" from="722411316" to="655967780#1-AddedOnRampEdge"/>
    <trip id="veh64" type="veh_passenger" depart="42.10" departLane="best" from="629505827#0" to="-165873269#1"/>
    <trip id="veh65" type="veh_passenger" depart="42.76" departLane="best" from="722411312" to="795055141#0"/>
    <trip id="veh66" type="veh_passenger" depart="43.42" departLane="best" from="-165932038" to="164600465#2"/>
    <trip id="veh67" type="veh_passenger" depart="44.08" departLane="best" from="391424546#0" to="166133742"/>
    <trip id="veh68" type="veh_passenger" depart="44.74" departLane="best" from="1219806284#15" to="-165932050#0"/>
    <trip id="veh69" type="veh_passenger" depart="45.39" departLane="best" from="391463715#5" to="703794532#0"/>
    <trip id="veh70" type="veh_passenger" depart="46.05" departLane="best" from="795168528#3" to="-215389541"/>
    <trip id="veh71" type="veh_passenger" depart="46.71" departLane="best" from="165873280#4" to="37401540#3"/>
    <trip id="veh72" type="veh_passenger" depart="47.37" departLane="best" from="-166192524#0" to="-660531076#0"/>
    <trip id="veh73" type="veh_passenger" depart="48.03" departLane="best" from="816394215" to="-166141465#1"/>
    <trip id="veh74" type="veh_passenger" depart="48.68" departLane="best" from="-816394204" to="165864130#2"/>
    <trip id="veh75" type="veh_passenger" depart="49.34" departLane="best" from="-166118866" to="-37397953#0"/>
    <trip id="veh76" type="veh_passenger" depart="50.00" departLane="best" departSpeed="max" from="-689664338" to="-166121386#0"/>
    <trip id="veh77" type="veh_passenger" depart="50.66" departLane="best" from="37396788#5" to="-365843786"/>
    <trip id="veh78" type="veh_passenger" depart="51.31" departLane="best" from="-165873274#0" to="166138494#1"/>
    <trip id="veh79" type="veh_passenger" depart="51.97" departLane="best" from="-37395919#3" to="776897191#1"/>
    <trip id="veh80" type="veh_passenger" depart="52.63" departLane="best" from="660540094#1" to="165932035#2"/>
    <trip id="veh81" type="veh_passenger" depart="53.29" departLane="best" from="37398454#0" to="-166192535#1"/>
    <trip id="veh82" type="veh_passenger" depart="53.95" departLane="best" from="-167849629#2" to="-166134552#7"/>
    <trip id="veh83" type="veh_passenger" depart="54.60" departLane="best" from="794794084#3" to="165937411#0"/>
    <trip id="veh84" type="veh_passenger" depart="55.26" departLane="best" from="1205393236#8" to="502224300#0"/>
    <trip id="veh85" type="veh_passenger" depart="55.92" departLane="best" from="511890774" to="-166192272#3"/>
    <trip id="veh86" type="veh_passenger" depart="56.58" departLane="best" from="-165933112" to="1009742013"/>
    <trip id="veh87" type="veh_passenger" depart="57.24" departLane="best" from="165864137" to="1219806284#9"/>
    <trip id="veh88" type="veh_passenger" depart="57.89" departLane="best" from="37399199#4" to="166192681#2"/>
    <trip id="veh89" type="veh_passenger" depart="58.55" departLane="best" from="801453631#2" to="165937410#1"/>
    <trip id="veh90" type="veh_passenger" depart="59.21" departLane="best" from="-795055144#0" to="-775843763"/>
    <trip id="veh91" type="veh_passenger" depart="59.87" departLane="best" from="660543863" to="37401540#0"/>
    <trip id="veh92" type="veh_passenger" depart="60.53" departLane="best" from="-166189837" to="117447268#2"/>
    <trip id="veh93" type="veh_passenger" depart="61.18" departLane="best" from="-795082810" to="-502613497"/>
    <trip id="veh94" type="veh_passenger" depart="61.84" departLane="best" from="-37400232#1" to="794794066#3"/>
    <trip id="veh95" type="veh_passenger" depart="62.50" departLane="best" from="-816394216#2" to="689664338"/>
    <trip id="veh96" type="veh_passenger" depart="63.16" departLane="best" from="-165932036#2" to="165864148"/>
    <trip id="veh97" type="veh_passenger" depart="63.81" departLane="best" from="-988489308#0" to="658560130#1"/>
    <trip id="veh98" type="veh_passenger" depart="64.47" departLane="best" from="795168528#4" to="-794794069#2"/>
    <trip id="veh99" type="veh_passenger" depart="65.13" departLane="best" from="-659995254#0" to="-166138509#5"/>
    <trip id="veh100" type="veh_passenger" depart="65.79" departLane="best" departSpeed="max" from="1229702146" to="234958362#1"/>
    <trip id="veh101" type="veh_passenger" depart="66.45" departLane="best" departSpeed="max" from="-795055141#1" to="-165873274#0"/>
    <trip id="veh102" type="veh_passenger" depart="67.10" departLane="best" from="-794794069#2" to="-801455982"/>
    <trip id="veh103" type="veh_passenger" depart="67.76" departLane="best" from="-391464991#0" to="502223048"/>
    <trip id="veh104" type="veh_passenger" depart="68.42" departLane="best" from="1056384128" to="-816394214#13"/>
    <trip id="veh105" type="veh_passenger" depart="69.08" departLane="best" from="795055166" to="816394216#0"/>
    <trip id="veh106" type="veh_passenger" depart="69.74" departLane="best" from="165932050#2" to="37399325#0"/>
    <trip id="veh107" type="veh_passenger" depart="70.39" departLane="best" from="-166136285#1" to="-658568390#2"/>
    <trip id="veh108" type="veh_passenger" depart="71.05" departLane="best" from="795168528#2" to="166118187"/>
    <trip id="veh109" type="veh_passenger" depart="71.71" departLane="best" from="165876149#2" to="382760169#1"/>
    <trip id="veh110" type="veh_passenger" depart="72.37" departLane="best" from="165864128#3" to="166118869#2"/>
    <trip id="veh111" type="veh_passenger" depart="73.03" departLane="best" from="-165503748#12" to="-660003521"/>
    <trip id="veh112" type="veh_passenger" depart="73.68" departLane="best" from="166136294" to="-795055170#4"/>
    <trip id="veh113" type="veh_passenger" depart="74.34" departLane="best" departSpeed="max" from="-165879627" to="-166189855#0"/>
    <trip id="veh114" type="veh_passenger" depart="75.00" departLane="best" from="166132716#1" to="-167849607#1"/>
    <trip id="veh115" type="veh_passenger" depart="75.66" departLane="best" from="-37397957#2" to="166132721#2"/>
    <trip id="veh116" type="veh_passenger" depart="76.31" departLane="best" departSpeed="max" from="760091180" to="-37401445#1"/>
    <trip id="veh117" type="veh_passenger" depart="76.97" departLane="best" departSpeed="max" from="166132715#0" to="166136289#0"/>
    <trip id="veh118" type="veh_passenger" depart="77.63" departLane="best" from="-795081474#0" to="166118869#2"/>
    <trip id="veh119" type="veh_passenger" depart="78.29" departLane="best" departSpeed="max" from="-166192530" to="37398836#8"/>
    <trip id="veh120" type="veh_passenger" depart="78.95" departLane="best" from="-37398455#2" to="-795055172#0"/>
    <trip id="veh121" type="veh_passenger" depart="79.60" departLane="best" from="166192278#0" to="-658923725#0"/>
    <trip id="veh122" type="veh_passenger" depart="80.26" departLane="best" from="658568390#1" to="390404842#0-AddedOnRampEdge"/>
    <trip id="veh123" type="veh_passenger" depart="80.92" departLane="best" from="165873280#4" to="1209269859"/>
    <trip id="veh124" type="veh_passenger" depart="81.58" departLane="best" from="-967800677" to="816394216#3"/>
    <trip id="veh125" type="veh_passenger" depart="82.24" departLane="best" from="-165873284" to="-234958312#0"/>
    <trip id="veh126" type="veh_passenger" depart="82.89" departLane="best" from="-391464991#0" to="-794794081#2"/>
    <trip id="veh127" type="veh_passenger" depart="83.55" departLane="best" from="-780404212#0" to="-166138494#0"/>
    <trip id="veh128" type="veh_passenger" depart="84.21" departLane="best" from="655967780#1-AddedOnRampEdge" to="37397879#5"/>
    <trip id="veh129" type="veh_passenger" depart="84.87" departLane="best" from="-166140736#5" to="117447268#0"/>
    <trip id="veh130" type="veh_passenger" depart="85.52" departLane="best" from="548310801#1-AddedOffRampEdge" to="-658921045"/>
    <trip id="veh131" type="veh_passenger" depart="86.18" departLane="best" from="166142450#1" to="-794820516#3"/>
    <trip id="veh132" type="veh_passenger" depart="86.84" departLane="best" from="166132722#0" to="-166132715#0"/>
    <trip id="veh133" type="veh_passenger" depart="87.50" departLane="best" from="-165937403#3" to="165932882#2"/>
    <trip id="veh135" type="veh_passenger" depart="88.81" departLane="best" departSpeed="max" from="37398116" to="-167849607#1"/>
    <trip id="veh136" type="veh_passenger" depart="89.47" departLane="best" from="166137335#4" to="-474161217"/>
    <trip id="veh137" type="veh_passenger" depart="90.13" departLane="best" from="164599124#1" to="-776897191#0"/>
    <trip id="veh138" type="veh_passenger" depart="90.79" departLane="best" from="658923726#4" to="-165937401#1"/>
    <trip id="veh139" type="veh_passenger" depart="91.45" departLane="best" from="165864137" to="-502226052#5"/>
    <trip id="veh140" type="veh_passenger" depart="92.10" departLane="best" from="1104206009" to="-474161217"/>
    <trip id="veh141" type="veh_passenger" depart="92.76" departLane="best" from="-166137568#1" to="-472066538"/>
    <trip id="veh142" type="veh_passenger" depart="93.42" departLane="best" from="37401540#6" to="165932876#0"/>
    <trip id="veh143" type="veh_passenger" depart="94.08" departLane="best" from="-795694458#6" to="-118416182#0"/>
    <trip id="veh145" type="veh_passenger" depart="95.39" departLane="best" from="776897191#0" to="-165932036#2"/>
    <trip id="veh146" type="veh_passenger" depart="96.05" departLane="best" departSpeed="max" from="655967781#0" to="166118868#0"/>
    <trip id="veh147" type="veh_passenger" depart="96.71" departLane="best" from="-166134924#6" to="-166132740#1"/>
    <trip id="veh148" type="veh_passenger" depart="97.37" departLane="best" from="-655967755" to="77488351#1-AddedOnRampEdge"/>
    <trip id="veh149" type="veh_passenger" depart="98.02" departLane="best" departSpeed="max" from="506755494" to="667383252#0"/>
    <trip id="veh150" type="veh_passenger" depart="98.68" departLane="best" from="77488354#0" to="168099483"/>
    <trip id="veh151" type="veh_passenger" depart="99.34" departLane="best" from="-37400083#2" to="166118184#0"/>
    <trip id="veh153" type="veh_passenger" depart="100.66" departLane="best" from="795055152#0" to="166136292#2"/>
    <trip id="veh154" type="veh_passenger" depart="101.31" departLane="best" from="-166136285#0" to="-794794074#2"/>
    <trip id="veh155" type="veh_passenger" depart="101.97" departLane="best" from="693695645" to="795710142"/>
    <trip id="veh157" type="veh_passenger" depart="103.29" departLane="best" departSpeed="max" from="-1227396637" to="-37403312#1"/>
    <trip id="veh158" type="veh_passenger" depart="103.95" departLane="best" from="511862483#4" to="697413076#2"/>
    <trip id="veh159" type="veh_passenger" depart="104.60" departLane="best" from="511894546#1" to="476159049#0"/>
    <trip id="veh160" type="veh_passenger" depart="105.26" departLane="best" from="502223046#2" to="-166118878#2"/>
    <trip id="veh161" type="veh_passenger" depart="105.92" departLane="best" departSpeed="max" from="702286344" to="-660543864#1"/>
    <trip id="veh163" type="veh_passenger" depart="107.24" departLane="best" from="506755492#0" to="-37398116"/>
    <trip id="veh164" type="veh_passenger" depart="107.89" departLane="best" departSpeed="max" from="-1224943817" to="166192524#0"/>
    <trip id="veh165" type="veh_passenger" depart="108.55" departLane="best" from="-659999695#1" to="697413077#0"/>
    <trip id="veh166" type="veh_passenger" depart="109.21" departLane="best" from="795082812" to="-502629848"/>
    <trip id="veh167" type="veh_passenger" depart="109.87" departLane="best" from="166138497#1" to="795081474#1"/>
    <trip id="veh168" type="veh_passenger" depart="110.52" departLane="best" from="798552520#2" to="165876149#0"/>
    <trip id="veh169" type="veh_passenger" depart="111.18" departLane="best" from="795034166#2" to="-166132715#0"/>
    <trip id="veh170" type="veh_passenger" depart="111.84" departLane="best" from="795168533#1" to="166141469#1"/>
    <trip id="veh171" type="veh_passenger" depart="112.50" departLane="best" from="795081467#3" to="476159045#1"/>
    <trip id="veh172" type="veh_passenger" depart="113.16" departLane="best" from="165937405#1" to="1009817531#2-AddedOnRampEdge"/>
    <trip id="veh173" type="veh_passenger" depart="113.81" departLane="best" from="37399199#2" to="-660540094#0"/>
    <trip id="veh174" type="veh_passenger" depart="114.47" departLane="best" from="166132738#3" to="-165859120#1"/>
    <trip id="veh175" type="veh_passenger" depart="115.13" departLane="best" from="-794794080#0" to="166118182#2"/>
    <trip id="veh176" type="veh_passenger" depart="115.79" departLane="best" from="-37401445#3" to="-37398453#1"/>
    <trip id="veh177" type="veh_passenger" depart="116.45" departLane="best" from="-1009742012" to="-794794067#9"/>
    <trip id="veh178" type="veh_passenger" depart="117.10" departLane="best" from="165873280#0" to="37399340#4"/>
    <trip id="veh179" type="veh_passenger" depart="117.76" departLane="best" from="37401552#1" to="-166192663#1"/>
    <trip id="veh180" type="veh_passenger" depart="118.42" departLane="best" from="779257458#0" to="165879638"/>
    <trip id="veh181" type="veh_passenger" depart="119.08" departLane="best" departSpeed="max" from="166142451" to="-754700577"/>
    <trip id="veh182" type="veh_passenger" depart="119.73" departLane="best" from="-658561314#0" to="-659995255#5"/>
    <trip id="veh183" type="veh_passenger" depart="120.39" departLane="best" from="37398450#3" to="-658923726#0"/>
    <trip id="veh184" type="veh_passenger" depart="121.05" departLane="best" from="655967779" to="795694458#1"/>
    <trip id="veh185" type="veh_passenger" depart="121.71" departLane="best" from="166132712#0" to="-816394205#0"/>
    <trip id="veh186" type="veh_passenger" depart="122.37" departLane="best" from="795034170#1" to="167849634#1"/>
    <trip id="veh187" type="veh_passenger" depart="123.02" departLane="best" from="795034166#1" to="166136278"/>
    <trip id="veh188" type="veh_passenger" depart="123.68" departLane="best" departSpeed="max" from="-619878639" to="165932043#3"/>
    <trip id="veh189" type="veh_passenger" depart="124.34" departLane="best" from="1009416211#1" to="-629505827#0"/>
    <trip id="veh190" type="veh_passenger" depart="125.00" departLane="best" from="-795710145#1" to="166118858#0"/>
    <trip id="veh191" type="veh_passenger" depart="125.66" departLane="best" from="166140736#8" to="1219806284#3"/>
    <trip id="veh192" type="veh_passenger" depart="126.31" departLane="best" from="-816394214#8" to="234958362#1"/>
    <trip id="veh193" type="veh_passenger" depart="126.97" departLane="best" departSpeed="max" from="1209271905" to="775142037"/>
    <trip id="veh194" type="veh_passenger" depart="127.63" departLane="best" from="506755492#1" to="-166140728#0"/>
    <trip id="veh195" type="veh_passenger" depart="128.29" departLane="best" from="-165932036#1" to="165864127#2"/>
    <trip id="veh196" type="veh_passenger" depart="128.95" departLane="best" from="-166137334#1" to="-760091181"/>
    <trip id="veh197" type="veh_passenger" depart="129.60" departLane="best" from="548310807#1" to="390404842#0"/>
    <trip id="veh198" type="veh_passenger" depart="130.26" departLane="best" from="-166192522#0" to="-37397937"/>
    <trip id="veh199" type="veh_passenger" depart="130.92" departLane="best" from="166192276#0" to="-165503746#2"/>
    <trip id="veh200" type="veh_passenger" depart="131.58" departLane="best" from="-37398836#8" to="1224943814"/>
    <trip id="veh201" type="veh_passenger" depart="132.23" departLane="best" from="659995255#1" to="-165932040#0"/>
    <trip id="veh202" type="veh_passenger" depart="132.89" departLane="best" from="-795055172#0" to="166137568#3"/>
    <trip id="veh203" type="veh_passenger" depart="133.55" departLane="best" from="-166189857#1" to="360610648"/>
    <trip id="veh204" type="veh_passenger" depart="134.21" departLane="best" from="164788465#0" to="-37400599#5"/>
    <trip id="veh205" type="veh_passenger" depart="134.87" departLane="best" from="166141456" to="1126006071"/>
    <trip id="veh206" type="veh_passenger" depart="135.52" departLane="best" departSpeed="max" from="382760141" to="472302489"/>
    <trip id="veh207" type="veh_passenger" depart="136.18" departLane="best" from="-165937403#0" to="816394216#10"/>
    <trip id="veh208" type="veh_passenger" depart="136.84" departLane="best" from="166138509#3" to="795055165#0"/>
    <trip id="veh209" type="veh_passenger" depart="137.50" departLane="best" from="165859125#1" to="-165864147#0"/>
    <trip id="veh210" type="veh_passenger" depart="138.16" departLane="best" from="-37400083#0" to="659996369#1"/>
    <trip id="veh211" type="veh_passenger" depart="138.81" departLane="best" from="1126003969-AddedOnRampEdge" to="511862493#0"/>
    <trip id="veh212" type="veh_passenger" depart="139.47" departLane="best" from="166189862" to="-816394203"/>
    <trip id="veh213" type="veh_passenger" depart="140.13" departLane="best" from="166132717#0" to="795055144#3"/>
    <trip id="veh214" type="veh_passenger" depart="140.79" departLane="best" from="77482415#0" to="-166134924#5"/>
    <trip id="veh215" type="veh_passenger" depart="141.45" departLane="best" from="-37398450#1" to="165556872#11"/>
    <trip id="veh216" type="veh_passenger" depart="142.10" departLane="best" from="655967769" to="165932043#3"/>
    <trip id="veh217" type="veh_passenger" depart="142.76" departLane="best" from="77488349" to="382760148"/>
    <trip id="veh218" type="veh_passenger" depart="143.42" departLane="best" from="1219806284#12" to="-419888274#0"/>
    <trip id="veh219" type="veh_passenger" depart="144.08" departLane="best" from="-37399340#1" to="166138508#0"/>
    <trip id="veh220" type="veh_passenger" depart="144.73" departLane="best" from="391424546#0" to="165864140#1"/>
    <trip id="veh221" type="veh_passenger" depart="145.39" departLane="best" from="166136288" to="-502224300#0"/>
    <trip id="veh222" type="veh_passenger" depart="146.05" departLane="best" from="-470176639" to="-697413076#2"/>
    <trip id="veh223" type="veh_passenger" depart="146.71" departLane="best" from="165873285#1" to="-166134925#4"/>
    <trip id="veh224" type="veh_passenger" depart="147.37" departLane="best" from="-37397059#2" to="333038821#1"/>
    <trip id="veh225" type="veh_passenger" depart="148.02" departLane="best" from="-333038823#1" to="-165876154#2"/>
    <trip id="veh226" type="veh_passenger" depart="148.68" departLane="best" from="795055156" to="165879632#3"/>
    <trip id="veh227" type="veh_passenger" depart="149.34" departLane="best" from="-795081465#0" to="-167849631#2"/>
    <trip id="veh228" type="veh_passenger" depart="150.00" departLane="best" from="-795082806#0" to="776669482"/>
    <trip id="veh229" type="veh_passenger" depart="150.66" departLane="best" from="166118862#2" to="360610647"/>
    <trip id="veh230" type="veh_passenger" depart="151.31" departLane="best" from="660003524#2" to="458811963"/>
    <trip id="veh231" type="veh_passenger" depart="151.97" departLane="best" from="-794794071#2" to="-1126006082"/>
    <trip id="veh232" type="veh_passenger" depart="152.63" departLane="best" from="-757670335#0" to="390404843#1-AddedOffRampEdge"/>
    <trip id="veh233" type="veh_passenger" depart="153.29" departLane="best" from="659999695#0" to="795055152#1"/>
    <trip id="veh234" type="veh_passenger" depart="153.94" departLane="best" from="795081473" to="382760168"/>
    <trip id="veh235" type="veh_passenger" depart="154.60" departLane="best" from="165879629" to="-166134551#0"/>
    <trip id="veh236" type="veh_passenger" depart="155.26" departLane="best" from="-234958362#0" to="-332813717"/>
    <trip id="veh237" type="veh_passenger" depart="155.92" departLane="best" from="801453631#0" to="165503753#0"/>
    <trip id="veh238" type="veh_passenger" depart="156.58" departLane="best" from="-666021451#1" to="-167850784"/>
    <trip id="veh239" type="veh_passenger" depart="157.23" departLane="best" from="-795055146#0" to="166138508#3"/>
    <trip id="veh240" type="veh_passenger" depart="157.89" departLane="best" departSpeed="max" from="118416182#0" to="166133725"/>